
---------- Begin Simulation Statistics ----------
final_tick                                 6292762070                       # Number of ticks from beginning of simulation (restored from checkpoints and never reset)
host_inst_rate                                 260064                       # Simulator instruction rate (inst/s)
host_mem_usage                                 989260                       # Number of bytes of host memory used
host_op_rate                                   764122                       # Simulator op (including micro ops) rate (op/s)
host_seconds                                     4.15                       # Real time elapsed on the host
host_tick_rate                             1516359764                       # Simulator tick rate (ticks/s)
sim_freq                                 1000000000000                       # Frequency of simulated ticks
sim_insts                                     1079193                       # Number of instructions simulated
sim_ops                                       3171025                       # Number of ops (including micro ops) simulated
sim_seconds                                  0.006293                       # Number of seconds simulated
sim_ticks                                  6292762070                       # Number of ticks simulated
system.clk_domain.clock                          1000                       # Clock period in ticks
system.cpu00.Branches                          179759                       # Number of branches fetched
system.cpu00.apic_clk_domain.clock              26720                       # Clock period in ticks
system.cpu00.committedInsts                   1079193                       # Number of instructions committed
system.cpu00.committedOps                     3171025                       # Number of ops (including micro ops) committed
system.cpu00.dtb.pwrStateResidencyTicks::UNDEFINED   6292762070                       # Cumulative time (in ticks) in various power states
system.cpu00.dtb.rdAccesses                    202284                       # TLB accesses on read requests
system.cpu00.dtb.rdMisses                          14                       # TLB misses on read requests
system.cpu00.dtb.walker.pwrStateResidencyTicks::UNDEFINED   6292762070                       # Cumulative time (in ticks) in various power states
system.cpu00.dtb.wrAccesses                    104802                       # TLB accesses on write requests
system.cpu00.dtb.wrMisses                         362                       # TLB misses on write requests
system.cpu00.idle_fraction                          0                       # Percentage of idle cycles
system.cpu00.interrupts.pwrStateResidencyTicks::UNDEFINED   6292762070                       # Cumulative time (in ticks) in various power states
system.cpu00.itb.pwrStateResidencyTicks::UNDEFINED   6292762070                       # Cumulative time (in ticks) in various power states
system.cpu00.itb.rdAccesses                         0                       # TLB accesses on read requests
system.cpu00.itb.rdMisses                           0                       # TLB misses on read requests
system.cpu00.itb.walker.pwrStateResidencyTicks::UNDEFINED   6292762070                       # Cumulative time (in ticks) in various power states
system.cpu00.itb.wrAccesses                   1416926                       # TLB accesses on write requests
system.cpu00.itb.wrMisses                          60                       # TLB misses on write requests
system.cpu00.not_idle_fraction                      1                       # Percentage of non-idle cycles
system.cpu00.numCycles                        3768121                       # number of cpu cycles simulated
system.cpu00.numWorkItemsCompleted                  0                       # number of work items this cpu completed
system.cpu00.numWorkItemsStarted                    0                       # number of work items this cpu started
system.cpu00.num_busy_cycles                  3768121                       # Number of busy cycles
system.cpu00.num_cc_register_reads            3420590                       # number of times the CC registers were read
system.cpu00.num_cc_register_writes           1162668                       # number of times the CC registers were written
system.cpu00.num_conditional_control_insts       145090                       # number of instructions that are conditional controls
system.cpu00.num_fp_alu_accesses                24312                       # Number of float alu accesses
system.cpu00.num_fp_insts                       24312                       # number of float instructions
system.cpu00.num_fp_register_reads              34171                       # number of times the floating registers were read
system.cpu00.num_fp_register_writes             19443                       # number of times the floating registers were written
system.cpu00.num_func_calls                     29205                       # number of times a function call or return occured
system.cpu00.num_idle_cycles                        0                       # Number of idle cycles
system.cpu00.num_int_alu_accesses             3108764                       # Number of integer alu accesses
system.cpu00.num_int_insts                    3108764                       # number of integer instructions
system.cpu00.num_int_register_reads           7457691                       # number of times the integer registers were read
system.cpu00.num_int_register_writes          3624861                       # number of times the integer registers were written
system.cpu00.num_load_insts                    202283                       # Number of load instructions
system.cpu00.num_mem_refs                      307085                       # number of memory refs
system.cpu00.num_store_insts                   104802                       # Number of store instructions
system.cpu00.num_vec_alu_accesses                   0                       # Number of vector alu accesses
system.cpu00.num_vec_insts                          0                       # number of vector instructions
system.cpu00.num_vec_register_reads                 0                       # number of times the vector registers were read
system.cpu00.num_vec_register_writes                0                       # number of times the vector registers were written
system.cpu00.op_class::No_OpClass               52248      1.65%      1.65% # Class of executed instruction
system.cpu00.op_class::IntAlu                 2402591     75.77%     77.41% # Class of executed instruction
system.cpu00.op_class::IntMult                  30682      0.97%     78.38% # Class of executed instruction
system.cpu00.op_class::IntDiv                  363747     11.47%     89.85% # Class of executed instruction
system.cpu00.op_class::FloatAdd                    12      0.00%     89.85% # Class of executed instruction
system.cpu00.op_class::FloatCmp                     0      0.00%     89.85% # Class of executed instruction
system.cpu00.op_class::FloatCvt                     0      0.00%     89.85% # Class of executed instruction
system.cpu00.op_class::FloatMult                    0      0.00%     89.85% # Class of executed instruction
system.cpu00.op_class::FloatMultAcc                 0      0.00%     89.85% # Class of executed instruction
system.cpu00.op_class::FloatDiv                     0      0.00%     89.85% # Class of executed instruction
system.cpu00.op_class::FloatMisc                    0      0.00%     89.85% # Class of executed instruction
system.cpu00.op_class::FloatSqrt                    0      0.00%     89.85% # Class of executed instruction
system.cpu00.op_class::SimdAdd                      0      0.00%     89.85% # Class of executed instruction
system.cpu00.op_class::SimdAddAcc                   0      0.00%     89.85% # Class of executed instruction
system.cpu00.op_class::SimdAlu                     86      0.00%     89.86% # Class of executed instruction
system.cpu00.op_class::SimdCmp                      0      0.00%     89.86% # Class of executed instruction
system.cpu00.op_class::SimdCvt                    110      0.00%     89.86% # Class of executed instruction
system.cpu00.op_class::SimdMisc                  4949      0.16%     90.02% # Class of executed instruction
system.cpu00.op_class::SimdMult                     0      0.00%     90.02% # Class of executed instruction
system.cpu00.op_class::SimdMultAcc                  0      0.00%     90.02% # Class of executed instruction
system.cpu00.op_class::SimdShift                    0      0.00%     90.02% # Class of executed instruction
system.cpu00.op_class::SimdShiftAcc                 0      0.00%     90.02% # Class of executed instruction
system.cpu00.op_class::SimdSqrt                     0      0.00%     90.02% # Class of executed instruction
system.cpu00.op_class::SimdFloatAdd                 0      0.00%     90.02% # Class of executed instruction
system.cpu00.op_class::SimdFloatAlu                 0      0.00%     90.02% # Class of executed instruction
system.cpu00.op_class::SimdFloatCmp                 0      0.00%     90.02% # Class of executed instruction
system.cpu00.op_class::SimdFloatCvt              4757      0.15%     90.17% # Class of executed instruction
system.cpu00.op_class::SimdFloatDiv              4754      0.15%     90.32% # Class of executed instruction
system.cpu00.op_class::SimdFloatMisc                0      0.00%     90.32% # Class of executed instruction
system.cpu00.op_class::SimdFloatMult                3      0.00%     90.32% # Class of executed instruction
system.cpu00.op_class::SimdFloatMultAcc             0      0.00%     90.32% # Class of executed instruction
system.cpu00.op_class::SimdFloatSqrt                1      0.00%     90.32% # Class of executed instruction
system.cpu00.op_class::SimdAes                      0      0.00%     90.32% # Class of executed instruction
system.cpu00.op_class::SimdAesMix                   0      0.00%     90.32% # Class of executed instruction
system.cpu00.op_class::SimdSha1Hash                 0      0.00%     90.32% # Class of executed instruction
system.cpu00.op_class::SimdSha1Hash2                0      0.00%     90.32% # Class of executed instruction
system.cpu00.op_class::SimdSha256Hash               0      0.00%     90.32% # Class of executed instruction
system.cpu00.op_class::SimdSha256Hash2              0      0.00%     90.32% # Class of executed instruction
system.cpu00.op_class::SimdShaSigma2                0      0.00%     90.32% # Class of executed instruction
system.cpu00.op_class::SimdShaSigma3                0      0.00%     90.32% # Class of executed instruction
system.cpu00.op_class::MemRead                 197452      6.23%     96.54% # Class of executed instruction
system.cpu00.op_class::MemWrite                100045      3.15%     99.70% # Class of executed instruction
system.cpu00.op_class::FloatMemRead              4831      0.15%     99.85% # Class of executed instruction
system.cpu00.op_class::FloatMemWrite             4757      0.15%    100.00% # Class of executed instruction
system.cpu00.op_class::IprAccess                    0      0.00%    100.00% # Class of executed instruction
system.cpu00.op_class::InstPrefetch                 0      0.00%    100.00% # Class of executed instruction
system.cpu00.op_class::total                  3171025                       # Class of executed instruction
system.cpu00.pwrStateResidencyTicks::ON    6292762070                       # Cumulative time (in ticks) in various power states
system.cpu00.workload.numSyscalls                  41                       # Number of system calls
system.cpu01.apic_clk_domain.clock              26720                       # Clock period in ticks
system.cpu01.committedInsts                         0                       # Number of instructions committed
system.cpu01.committedOps                           0                       # Number of ops (including micro ops) committed
system.cpu01.dtb.pwrStateResidencyTicks::UNDEFINED   6292762070                       # Cumulative time (in ticks) in various power states
system.cpu01.dtb.rdAccesses                         0                       # TLB accesses on read requests
system.cpu01.dtb.rdMisses                           0                       # TLB misses on read requests
system.cpu01.dtb.walker.pwrStateResidencyTicks::UNDEFINED   6292762070                       # Cumulative time (in ticks) in various power states
system.cpu01.dtb.wrAccesses                         0                       # TLB accesses on write requests
system.cpu01.dtb.wrMisses                           0                       # TLB misses on write requests
system.cpu01.idle_fraction                          1                       # Percentage of idle cycles
system.cpu01.interrupts.pwrStateResidencyTicks::UNDEFINED   6292762070                       # Cumulative time (in ticks) in various power states
system.cpu01.itb.pwrStateResidencyTicks::UNDEFINED   6292762070                       # Cumulative time (in ticks) in various power states
system.cpu01.itb.rdAccesses                         0                       # TLB accesses on read requests
system.cpu01.itb.rdMisses                           0                       # TLB misses on read requests
system.cpu01.itb.walker.pwrStateResidencyTicks::UNDEFINED   6292762070                       # Cumulative time (in ticks) in various power states
system.cpu01.itb.wrAccesses                         0                       # TLB accesses on write requests
system.cpu01.itb.wrMisses                           0                       # TLB misses on write requests
system.cpu01.not_idle_fraction                      0                       # Percentage of non-idle cycles
system.cpu01.numCycles                              0                       # number of cpu cycles simulated
system.cpu01.numWorkItemsCompleted                  0                       # number of work items this cpu completed
system.cpu01.numWorkItemsStarted                    0                       # number of work items this cpu started
system.cpu01.num_busy_cycles                        0                       # Number of busy cycles
system.cpu01.num_conditional_control_insts            0                       # number of instructions that are conditional controls
system.cpu01.num_fp_alu_accesses                    0                       # Number of float alu accesses
system.cpu01.num_fp_insts                           0                       # number of float instructions
system.cpu01.num_fp_register_reads                  0                       # number of times the floating registers were read
system.cpu01.num_fp_register_writes                 0                       # number of times the floating registers were written
system.cpu01.num_func_calls                         0                       # number of times a function call or return occured
system.cpu01.num_idle_cycles                        0                       # Number of idle cycles
system.cpu01.num_int_alu_accesses                   0                       # Number of integer alu accesses
system.cpu01.num_int_insts                          0                       # number of integer instructions
system.cpu01.num_int_register_reads                 0                       # number of times the integer registers were read
system.cpu01.num_int_register_writes                0                       # number of times the integer registers were written
system.cpu01.num_load_insts                         0                       # Number of load instructions
system.cpu01.num_mem_refs                           0                       # number of memory refs
system.cpu01.num_store_insts                        0                       # Number of store instructions
system.cpu01.num_vec_alu_accesses                   0                       # Number of vector alu accesses
system.cpu01.num_vec_insts                          0                       # number of vector instructions
system.cpu01.num_vec_register_reads                 0                       # number of times the vector registers were read
system.cpu01.num_vec_register_writes                0                       # number of times the vector registers were written
system.cpu01.op_class::No_OpClass                   0                       # Class of executed instruction
system.cpu01.op_class::IntAlu                       0                       # Class of executed instruction
system.cpu01.op_class::IntMult                      0                       # Class of executed instruction
system.cpu01.op_class::IntDiv                       0                       # Class of executed instruction
system.cpu01.op_class::FloatAdd                     0                       # Class of executed instruction
system.cpu01.op_class::FloatCmp                     0                       # Class of executed instruction
system.cpu01.op_class::FloatCvt                     0                       # Class of executed instruction
system.cpu01.op_class::FloatMult                    0                       # Class of executed instruction
system.cpu01.op_class::FloatMultAcc                 0                       # Class of executed instruction
system.cpu01.op_class::FloatDiv                     0                       # Class of executed instruction
system.cpu01.op_class::FloatMisc                    0                       # Class of executed instruction
system.cpu01.op_class::FloatSqrt                    0                       # Class of executed instruction
system.cpu01.op_class::SimdAdd                      0                       # Class of executed instruction
system.cpu01.op_class::SimdAddAcc                   0                       # Class of executed instruction
system.cpu01.op_class::SimdAlu                      0                       # Class of executed instruction
system.cpu01.op_class::SimdCmp                      0                       # Class of executed instruction
system.cpu01.op_class::SimdCvt                      0                       # Class of executed instruction
system.cpu01.op_class::SimdMisc                     0                       # Class of executed instruction
system.cpu01.op_class::SimdMult                     0                       # Class of executed instruction
system.cpu01.op_class::SimdMultAcc                  0                       # Class of executed instruction
system.cpu01.op_class::SimdShift                    0                       # Class of executed instruction
system.cpu01.op_class::SimdShiftAcc                 0                       # Class of executed instruction
system.cpu01.op_class::SimdSqrt                     0                       # Class of executed instruction
system.cpu01.op_class::SimdFloatAdd                 0                       # Class of executed instruction
system.cpu01.op_class::SimdFloatAlu                 0                       # Class of executed instruction
system.cpu01.op_class::SimdFloatCmp                 0                       # Class of executed instruction
system.cpu01.op_class::SimdFloatCvt                 0                       # Class of executed instruction
system.cpu01.op_class::SimdFloatDiv                 0                       # Class of executed instruction
system.cpu01.op_class::SimdFloatMisc                0                       # Class of executed instruction
system.cpu01.op_class::SimdFloatMult                0                       # Class of executed instruction
system.cpu01.op_class::SimdFloatMultAcc             0                       # Class of executed instruction
system.cpu01.op_class::SimdFloatSqrt                0                       # Class of executed instruction
system.cpu01.op_class::SimdAes                      0                       # Class of executed instruction
system.cpu01.op_class::SimdAesMix                   0                       # Class of executed instruction
system.cpu01.op_class::SimdSha1Hash                 0                       # Class of executed instruction
system.cpu01.op_class::SimdSha1Hash2                0                       # Class of executed instruction
system.cpu01.op_class::SimdSha256Hash               0                       # Class of executed instruction
system.cpu01.op_class::SimdSha256Hash2              0                       # Class of executed instruction
system.cpu01.op_class::SimdShaSigma2                0                       # Class of executed instruction
system.cpu01.op_class::SimdShaSigma3                0                       # Class of executed instruction
system.cpu01.op_class::MemRead                      0                       # Class of executed instruction
system.cpu01.op_class::MemWrite                     0                       # Class of executed instruction
system.cpu01.op_class::FloatMemRead                 0                       # Class of executed instruction
system.cpu01.op_class::FloatMemWrite                0                       # Class of executed instruction
system.cpu01.op_class::IprAccess                    0                       # Class of executed instruction
system.cpu01.op_class::InstPrefetch                 0                       # Class of executed instruction
system.cpu01.op_class::total                        0                       # Class of executed instruction
system.cpu01.pwrStateResidencyTicks::ON    6292762070                       # Cumulative time (in ticks) in various power states
system.cpu02.apic_clk_domain.clock              26720                       # Clock period in ticks
system.cpu02.committedInsts                         0                       # Number of instructions committed
system.cpu02.committedOps                           0                       # Number of ops (including micro ops) committed
system.cpu02.dtb.pwrStateResidencyTicks::UNDEFINED   6292762070                       # Cumulative time (in ticks) in various power states
system.cpu02.dtb.rdAccesses                         0                       # TLB accesses on read requests
system.cpu02.dtb.rdMisses                           0                       # TLB misses on read requests
system.cpu02.dtb.walker.pwrStateResidencyTicks::UNDEFINED   6292762070                       # Cumulative time (in ticks) in various power states
system.cpu02.dtb.wrAccesses                         0                       # TLB accesses on write requests
system.cpu02.dtb.wrMisses                           0                       # TLB misses on write requests
system.cpu02.idle_fraction                          1                       # Percentage of idle cycles
system.cpu02.interrupts.pwrStateResidencyTicks::UNDEFINED   6292762070                       # Cumulative time (in ticks) in various power states
system.cpu02.itb.pwrStateResidencyTicks::UNDEFINED   6292762070                       # Cumulative time (in ticks) in various power states
system.cpu02.itb.rdAccesses                         0                       # TLB accesses on read requests
system.cpu02.itb.rdMisses                           0                       # TLB misses on read requests
system.cpu02.itb.walker.pwrStateResidencyTicks::UNDEFINED   6292762070                       # Cumulative time (in ticks) in various power states
system.cpu02.itb.wrAccesses                         0                       # TLB accesses on write requests
system.cpu02.itb.wrMisses                           0                       # TLB misses on write requests
system.cpu02.not_idle_fraction                      0                       # Percentage of non-idle cycles
system.cpu02.numCycles                              0                       # number of cpu cycles simulated
system.cpu02.numWorkItemsCompleted                  0                       # number of work items this cpu completed
system.cpu02.numWorkItemsStarted                    0                       # number of work items this cpu started
system.cpu02.num_busy_cycles                        0                       # Number of busy cycles
system.cpu02.num_conditional_control_insts            0                       # number of instructions that are conditional controls
system.cpu02.num_fp_alu_accesses                    0                       # Number of float alu accesses
system.cpu02.num_fp_insts                           0                       # number of float instructions
system.cpu02.num_fp_register_reads                  0                       # number of times the floating registers were read
system.cpu02.num_fp_register_writes                 0                       # number of times the floating registers were written
system.cpu02.num_func_calls                         0                       # number of times a function call or return occured
system.cpu02.num_idle_cycles                        0                       # Number of idle cycles
system.cpu02.num_int_alu_accesses                   0                       # Number of integer alu accesses
system.cpu02.num_int_insts                          0                       # number of integer instructions
system.cpu02.num_int_register_reads                 0                       # number of times the integer registers were read
system.cpu02.num_int_register_writes                0                       # number of times the integer registers were written
system.cpu02.num_load_insts                         0                       # Number of load instructions
system.cpu02.num_mem_refs                           0                       # number of memory refs
system.cpu02.num_store_insts                        0                       # Number of store instructions
system.cpu02.num_vec_alu_accesses                   0                       # Number of vector alu accesses
system.cpu02.num_vec_insts                          0                       # number of vector instructions
system.cpu02.num_vec_register_reads                 0                       # number of times the vector registers were read
system.cpu02.num_vec_register_writes                0                       # number of times the vector registers were written
system.cpu02.op_class::No_OpClass                   0                       # Class of executed instruction
system.cpu02.op_class::IntAlu                       0                       # Class of executed instruction
system.cpu02.op_class::IntMult                      0                       # Class of executed instruction
system.cpu02.op_class::IntDiv                       0                       # Class of executed instruction
system.cpu02.op_class::FloatAdd                     0                       # Class of executed instruction
system.cpu02.op_class::FloatCmp                     0                       # Class of executed instruction
system.cpu02.op_class::FloatCvt                     0                       # Class of executed instruction
system.cpu02.op_class::FloatMult                    0                       # Class of executed instruction
system.cpu02.op_class::FloatMultAcc                 0                       # Class of executed instruction
system.cpu02.op_class::FloatDiv                     0                       # Class of executed instruction
system.cpu02.op_class::FloatMisc                    0                       # Class of executed instruction
system.cpu02.op_class::FloatSqrt                    0                       # Class of executed instruction
system.cpu02.op_class::SimdAdd                      0                       # Class of executed instruction
system.cpu02.op_class::SimdAddAcc                   0                       # Class of executed instruction
system.cpu02.op_class::SimdAlu                      0                       # Class of executed instruction
system.cpu02.op_class::SimdCmp                      0                       # Class of executed instruction
system.cpu02.op_class::SimdCvt                      0                       # Class of executed instruction
system.cpu02.op_class::SimdMisc                     0                       # Class of executed instruction
system.cpu02.op_class::SimdMult                     0                       # Class of executed instruction
system.cpu02.op_class::SimdMultAcc                  0                       # Class of executed instruction
system.cpu02.op_class::SimdShift                    0                       # Class of executed instruction
system.cpu02.op_class::SimdShiftAcc                 0                       # Class of executed instruction
system.cpu02.op_class::SimdSqrt                     0                       # Class of executed instruction
system.cpu02.op_class::SimdFloatAdd                 0                       # Class of executed instruction
system.cpu02.op_class::SimdFloatAlu                 0                       # Class of executed instruction
system.cpu02.op_class::SimdFloatCmp                 0                       # Class of executed instruction
system.cpu02.op_class::SimdFloatCvt                 0                       # Class of executed instruction
system.cpu02.op_class::SimdFloatDiv                 0                       # Class of executed instruction
system.cpu02.op_class::SimdFloatMisc                0                       # Class of executed instruction
system.cpu02.op_class::SimdFloatMult                0                       # Class of executed instruction
system.cpu02.op_class::SimdFloatMultAcc             0                       # Class of executed instruction
system.cpu02.op_class::SimdFloatSqrt                0                       # Class of executed instruction
system.cpu02.op_class::SimdAes                      0                       # Class of executed instruction
system.cpu02.op_class::SimdAesMix                   0                       # Class of executed instruction
system.cpu02.op_class::SimdSha1Hash                 0                       # Class of executed instruction
system.cpu02.op_class::SimdSha1Hash2                0                       # Class of executed instruction
system.cpu02.op_class::SimdSha256Hash               0                       # Class of executed instruction
system.cpu02.op_class::SimdSha256Hash2              0                       # Class of executed instruction
system.cpu02.op_class::SimdShaSigma2                0                       # Class of executed instruction
system.cpu02.op_class::SimdShaSigma3                0                       # Class of executed instruction
system.cpu02.op_class::MemRead                      0                       # Class of executed instruction
system.cpu02.op_class::MemWrite                     0                       # Class of executed instruction
system.cpu02.op_class::FloatMemRead                 0                       # Class of executed instruction
system.cpu02.op_class::FloatMemWrite                0                       # Class of executed instruction
system.cpu02.op_class::IprAccess                    0                       # Class of executed instruction
system.cpu02.op_class::InstPrefetch                 0                       # Class of executed instruction
system.cpu02.op_class::total                        0                       # Class of executed instruction
system.cpu02.pwrStateResidencyTicks::ON    6292762070                       # Cumulative time (in ticks) in various power states
system.cpu03.apic_clk_domain.clock              26720                       # Clock period in ticks
system.cpu03.committedInsts                         0                       # Number of instructions committed
system.cpu03.committedOps                           0                       # Number of ops (including micro ops) committed
system.cpu03.dtb.pwrStateResidencyTicks::UNDEFINED   6292762070                       # Cumulative time (in ticks) in various power states
system.cpu03.dtb.rdAccesses                         0                       # TLB accesses on read requests
system.cpu03.dtb.rdMisses                           0                       # TLB misses on read requests
system.cpu03.dtb.walker.pwrStateResidencyTicks::UNDEFINED   6292762070                       # Cumulative time (in ticks) in various power states
system.cpu03.dtb.wrAccesses                         0                       # TLB accesses on write requests
system.cpu03.dtb.wrMisses                           0                       # TLB misses on write requests
system.cpu03.idle_fraction                          1                       # Percentage of idle cycles
system.cpu03.interrupts.pwrStateResidencyTicks::UNDEFINED   6292762070                       # Cumulative time (in ticks) in various power states
system.cpu03.itb.pwrStateResidencyTicks::UNDEFINED   6292762070                       # Cumulative time (in ticks) in various power states
system.cpu03.itb.rdAccesses                         0                       # TLB accesses on read requests
system.cpu03.itb.rdMisses                           0                       # TLB misses on read requests
system.cpu03.itb.walker.pwrStateResidencyTicks::UNDEFINED   6292762070                       # Cumulative time (in ticks) in various power states
system.cpu03.itb.wrAccesses                         0                       # TLB accesses on write requests
system.cpu03.itb.wrMisses                           0                       # TLB misses on write requests
system.cpu03.not_idle_fraction                      0                       # Percentage of non-idle cycles
system.cpu03.numCycles                              0                       # number of cpu cycles simulated
system.cpu03.numWorkItemsCompleted                  0                       # number of work items this cpu completed
system.cpu03.numWorkItemsStarted                    0                       # number of work items this cpu started
system.cpu03.num_busy_cycles                        0                       # Number of busy cycles
system.cpu03.num_conditional_control_insts            0                       # number of instructions that are conditional controls
system.cpu03.num_fp_alu_accesses                    0                       # Number of float alu accesses
system.cpu03.num_fp_insts                           0                       # number of float instructions
system.cpu03.num_fp_register_reads                  0                       # number of times the floating registers were read
system.cpu03.num_fp_register_writes                 0                       # number of times the floating registers were written
system.cpu03.num_func_calls                         0                       # number of times a function call or return occured
system.cpu03.num_idle_cycles                        0                       # Number of idle cycles
system.cpu03.num_int_alu_accesses                   0                       # Number of integer alu accesses
system.cpu03.num_int_insts                          0                       # number of integer instructions
system.cpu03.num_int_register_reads                 0                       # number of times the integer registers were read
system.cpu03.num_int_register_writes                0                       # number of times the integer registers were written
system.cpu03.num_load_insts                         0                       # Number of load instructions
system.cpu03.num_mem_refs                           0                       # number of memory refs
system.cpu03.num_store_insts                        0                       # Number of store instructions
system.cpu03.num_vec_alu_accesses                   0                       # Number of vector alu accesses
system.cpu03.num_vec_insts                          0                       # number of vector instructions
system.cpu03.num_vec_register_reads                 0                       # number of times the vector registers were read
system.cpu03.num_vec_register_writes                0                       # number of times the vector registers were written
system.cpu03.op_class::No_OpClass                   0                       # Class of executed instruction
system.cpu03.op_class::IntAlu                       0                       # Class of executed instruction
system.cpu03.op_class::IntMult                      0                       # Class of executed instruction
system.cpu03.op_class::IntDiv                       0                       # Class of executed instruction
system.cpu03.op_class::FloatAdd                     0                       # Class of executed instruction
system.cpu03.op_class::FloatCmp                     0                       # Class of executed instruction
system.cpu03.op_class::FloatCvt                     0                       # Class of executed instruction
system.cpu03.op_class::FloatMult                    0                       # Class of executed instruction
system.cpu03.op_class::FloatMultAcc                 0                       # Class of executed instruction
system.cpu03.op_class::FloatDiv                     0                       # Class of executed instruction
system.cpu03.op_class::FloatMisc                    0                       # Class of executed instruction
system.cpu03.op_class::FloatSqrt                    0                       # Class of executed instruction
system.cpu03.op_class::SimdAdd                      0                       # Class of executed instruction
system.cpu03.op_class::SimdAddAcc                   0                       # Class of executed instruction
system.cpu03.op_class::SimdAlu                      0                       # Class of executed instruction
system.cpu03.op_class::SimdCmp                      0                       # Class of executed instruction
system.cpu03.op_class::SimdCvt                      0                       # Class of executed instruction
system.cpu03.op_class::SimdMisc                     0                       # Class of executed instruction
system.cpu03.op_class::SimdMult                     0                       # Class of executed instruction
system.cpu03.op_class::SimdMultAcc                  0                       # Class of executed instruction
system.cpu03.op_class::SimdShift                    0                       # Class of executed instruction
system.cpu03.op_class::SimdShiftAcc                 0                       # Class of executed instruction
system.cpu03.op_class::SimdSqrt                     0                       # Class of executed instruction
system.cpu03.op_class::SimdFloatAdd                 0                       # Class of executed instruction
system.cpu03.op_class::SimdFloatAlu                 0                       # Class of executed instruction
system.cpu03.op_class::SimdFloatCmp                 0                       # Class of executed instruction
system.cpu03.op_class::SimdFloatCvt                 0                       # Class of executed instruction
system.cpu03.op_class::SimdFloatDiv                 0                       # Class of executed instruction
system.cpu03.op_class::SimdFloatMisc                0                       # Class of executed instruction
system.cpu03.op_class::SimdFloatMult                0                       # Class of executed instruction
system.cpu03.op_class::SimdFloatMultAcc             0                       # Class of executed instruction
system.cpu03.op_class::SimdFloatSqrt                0                       # Class of executed instruction
system.cpu03.op_class::SimdAes                      0                       # Class of executed instruction
system.cpu03.op_class::SimdAesMix                   0                       # Class of executed instruction
system.cpu03.op_class::SimdSha1Hash                 0                       # Class of executed instruction
system.cpu03.op_class::SimdSha1Hash2                0                       # Class of executed instruction
system.cpu03.op_class::SimdSha256Hash               0                       # Class of executed instruction
system.cpu03.op_class::SimdSha256Hash2              0                       # Class of executed instruction
system.cpu03.op_class::SimdShaSigma2                0                       # Class of executed instruction
system.cpu03.op_class::SimdShaSigma3                0                       # Class of executed instruction
system.cpu03.op_class::MemRead                      0                       # Class of executed instruction
system.cpu03.op_class::MemWrite                     0                       # Class of executed instruction
system.cpu03.op_class::FloatMemRead                 0                       # Class of executed instruction
system.cpu03.op_class::FloatMemWrite                0                       # Class of executed instruction
system.cpu03.op_class::IprAccess                    0                       # Class of executed instruction
system.cpu03.op_class::InstPrefetch                 0                       # Class of executed instruction
system.cpu03.op_class::total                        0                       # Class of executed instruction
system.cpu03.pwrStateResidencyTicks::ON    6292762070                       # Cumulative time (in ticks) in various power states
system.cpu04.apic_clk_domain.clock              26720                       # Clock period in ticks
system.cpu04.committedInsts                         0                       # Number of instructions committed
system.cpu04.committedOps                           0                       # Number of ops (including micro ops) committed
system.cpu04.dtb.pwrStateResidencyTicks::UNDEFINED   6292762070                       # Cumulative time (in ticks) in various power states
system.cpu04.dtb.rdAccesses                         0                       # TLB accesses on read requests
system.cpu04.dtb.rdMisses                           0                       # TLB misses on read requests
system.cpu04.dtb.walker.pwrStateResidencyTicks::UNDEFINED   6292762070                       # Cumulative time (in ticks) in various power states
system.cpu04.dtb.wrAccesses                         0                       # TLB accesses on write requests
system.cpu04.dtb.wrMisses                           0                       # TLB misses on write requests
system.cpu04.idle_fraction                          1                       # Percentage of idle cycles
system.cpu04.interrupts.pwrStateResidencyTicks::UNDEFINED   6292762070                       # Cumulative time (in ticks) in various power states
system.cpu04.itb.pwrStateResidencyTicks::UNDEFINED   6292762070                       # Cumulative time (in ticks) in various power states
system.cpu04.itb.rdAccesses                         0                       # TLB accesses on read requests
system.cpu04.itb.rdMisses                           0                       # TLB misses on read requests
system.cpu04.itb.walker.pwrStateResidencyTicks::UNDEFINED   6292762070                       # Cumulative time (in ticks) in various power states
system.cpu04.itb.wrAccesses                         0                       # TLB accesses on write requests
system.cpu04.itb.wrMisses                           0                       # TLB misses on write requests
system.cpu04.not_idle_fraction                      0                       # Percentage of non-idle cycles
system.cpu04.numCycles                              0                       # number of cpu cycles simulated
system.cpu04.numWorkItemsCompleted                  0                       # number of work items this cpu completed
system.cpu04.numWorkItemsStarted                    0                       # number of work items this cpu started
system.cpu04.num_busy_cycles                        0                       # Number of busy cycles
system.cpu04.num_conditional_control_insts            0                       # number of instructions that are conditional controls
system.cpu04.num_fp_alu_accesses                    0                       # Number of float alu accesses
system.cpu04.num_fp_insts                           0                       # number of float instructions
system.cpu04.num_fp_register_reads                  0                       # number of times the floating registers were read
system.cpu04.num_fp_register_writes                 0                       # number of times the floating registers were written
system.cpu04.num_func_calls                         0                       # number of times a function call or return occured
system.cpu04.num_idle_cycles                        0                       # Number of idle cycles
system.cpu04.num_int_alu_accesses                   0                       # Number of integer alu accesses
system.cpu04.num_int_insts                          0                       # number of integer instructions
system.cpu04.num_int_register_reads                 0                       # number of times the integer registers were read
system.cpu04.num_int_register_writes                0                       # number of times the integer registers were written
system.cpu04.num_load_insts                         0                       # Number of load instructions
system.cpu04.num_mem_refs                           0                       # number of memory refs
system.cpu04.num_store_insts                        0                       # Number of store instructions
system.cpu04.num_vec_alu_accesses                   0                       # Number of vector alu accesses
system.cpu04.num_vec_insts                          0                       # number of vector instructions
system.cpu04.num_vec_register_reads                 0                       # number of times the vector registers were read
system.cpu04.num_vec_register_writes                0                       # number of times the vector registers were written
system.cpu04.op_class::No_OpClass                   0                       # Class of executed instruction
system.cpu04.op_class::IntAlu                       0                       # Class of executed instruction
system.cpu04.op_class::IntMult                      0                       # Class of executed instruction
system.cpu04.op_class::IntDiv                       0                       # Class of executed instruction
system.cpu04.op_class::FloatAdd                     0                       # Class of executed instruction
system.cpu04.op_class::FloatCmp                     0                       # Class of executed instruction
system.cpu04.op_class::FloatCvt                     0                       # Class of executed instruction
system.cpu04.op_class::FloatMult                    0                       # Class of executed instruction
system.cpu04.op_class::FloatMultAcc                 0                       # Class of executed instruction
system.cpu04.op_class::FloatDiv                     0                       # Class of executed instruction
system.cpu04.op_class::FloatMisc                    0                       # Class of executed instruction
system.cpu04.op_class::FloatSqrt                    0                       # Class of executed instruction
system.cpu04.op_class::SimdAdd                      0                       # Class of executed instruction
system.cpu04.op_class::SimdAddAcc                   0                       # Class of executed instruction
system.cpu04.op_class::SimdAlu                      0                       # Class of executed instruction
system.cpu04.op_class::SimdCmp                      0                       # Class of executed instruction
system.cpu04.op_class::SimdCvt                      0                       # Class of executed instruction
system.cpu04.op_class::SimdMisc                     0                       # Class of executed instruction
system.cpu04.op_class::SimdMult                     0                       # Class of executed instruction
system.cpu04.op_class::SimdMultAcc                  0                       # Class of executed instruction
system.cpu04.op_class::SimdShift                    0                       # Class of executed instruction
system.cpu04.op_class::SimdShiftAcc                 0                       # Class of executed instruction
system.cpu04.op_class::SimdSqrt                     0                       # Class of executed instruction
system.cpu04.op_class::SimdFloatAdd                 0                       # Class of executed instruction
system.cpu04.op_class::SimdFloatAlu                 0                       # Class of executed instruction
system.cpu04.op_class::SimdFloatCmp                 0                       # Class of executed instruction
system.cpu04.op_class::SimdFloatCvt                 0                       # Class of executed instruction
system.cpu04.op_class::SimdFloatDiv                 0                       # Class of executed instruction
system.cpu04.op_class::SimdFloatMisc                0                       # Class of executed instruction
system.cpu04.op_class::SimdFloatMult                0                       # Class of executed instruction
system.cpu04.op_class::SimdFloatMultAcc             0                       # Class of executed instruction
system.cpu04.op_class::SimdFloatSqrt                0                       # Class of executed instruction
system.cpu04.op_class::SimdAes                      0                       # Class of executed instruction
system.cpu04.op_class::SimdAesMix                   0                       # Class of executed instruction
system.cpu04.op_class::SimdSha1Hash                 0                       # Class of executed instruction
system.cpu04.op_class::SimdSha1Hash2                0                       # Class of executed instruction
system.cpu04.op_class::SimdSha256Hash               0                       # Class of executed instruction
system.cpu04.op_class::SimdSha256Hash2              0                       # Class of executed instruction
system.cpu04.op_class::SimdShaSigma2                0                       # Class of executed instruction
system.cpu04.op_class::SimdShaSigma3                0                       # Class of executed instruction
system.cpu04.op_class::MemRead                      0                       # Class of executed instruction
system.cpu04.op_class::MemWrite                     0                       # Class of executed instruction
system.cpu04.op_class::FloatMemRead                 0                       # Class of executed instruction
system.cpu04.op_class::FloatMemWrite                0                       # Class of executed instruction
system.cpu04.op_class::IprAccess                    0                       # Class of executed instruction
system.cpu04.op_class::InstPrefetch                 0                       # Class of executed instruction
system.cpu04.op_class::total                        0                       # Class of executed instruction
system.cpu04.pwrStateResidencyTicks::ON    6292762070                       # Cumulative time (in ticks) in various power states
system.cpu05.apic_clk_domain.clock              26720                       # Clock period in ticks
system.cpu05.committedInsts                         0                       # Number of instructions committed
system.cpu05.committedOps                           0                       # Number of ops (including micro ops) committed
system.cpu05.dtb.pwrStateResidencyTicks::UNDEFINED   6292762070                       # Cumulative time (in ticks) in various power states
system.cpu05.dtb.rdAccesses                         0                       # TLB accesses on read requests
system.cpu05.dtb.rdMisses                           0                       # TLB misses on read requests
system.cpu05.dtb.walker.pwrStateResidencyTicks::UNDEFINED   6292762070                       # Cumulative time (in ticks) in various power states
system.cpu05.dtb.wrAccesses                         0                       # TLB accesses on write requests
system.cpu05.dtb.wrMisses                           0                       # TLB misses on write requests
system.cpu05.idle_fraction                          1                       # Percentage of idle cycles
system.cpu05.interrupts.pwrStateResidencyTicks::UNDEFINED   6292762070                       # Cumulative time (in ticks) in various power states
system.cpu05.itb.pwrStateResidencyTicks::UNDEFINED   6292762070                       # Cumulative time (in ticks) in various power states
system.cpu05.itb.rdAccesses                         0                       # TLB accesses on read requests
system.cpu05.itb.rdMisses                           0                       # TLB misses on read requests
system.cpu05.itb.walker.pwrStateResidencyTicks::UNDEFINED   6292762070                       # Cumulative time (in ticks) in various power states
system.cpu05.itb.wrAccesses                         0                       # TLB accesses on write requests
system.cpu05.itb.wrMisses                           0                       # TLB misses on write requests
system.cpu05.not_idle_fraction                      0                       # Percentage of non-idle cycles
system.cpu05.numCycles                              0                       # number of cpu cycles simulated
system.cpu05.numWorkItemsCompleted                  0                       # number of work items this cpu completed
system.cpu05.numWorkItemsStarted                    0                       # number of work items this cpu started
system.cpu05.num_busy_cycles                        0                       # Number of busy cycles
system.cpu05.num_conditional_control_insts            0                       # number of instructions that are conditional controls
system.cpu05.num_fp_alu_accesses                    0                       # Number of float alu accesses
system.cpu05.num_fp_insts                           0                       # number of float instructions
system.cpu05.num_fp_register_reads                  0                       # number of times the floating registers were read
system.cpu05.num_fp_register_writes                 0                       # number of times the floating registers were written
system.cpu05.num_func_calls                         0                       # number of times a function call or return occured
system.cpu05.num_idle_cycles                        0                       # Number of idle cycles
system.cpu05.num_int_alu_accesses                   0                       # Number of integer alu accesses
system.cpu05.num_int_insts                          0                       # number of integer instructions
system.cpu05.num_int_register_reads                 0                       # number of times the integer registers were read
system.cpu05.num_int_register_writes                0                       # number of times the integer registers were written
system.cpu05.num_load_insts                         0                       # Number of load instructions
system.cpu05.num_mem_refs                           0                       # number of memory refs
system.cpu05.num_store_insts                        0                       # Number of store instructions
system.cpu05.num_vec_alu_accesses                   0                       # Number of vector alu accesses
system.cpu05.num_vec_insts                          0                       # number of vector instructions
system.cpu05.num_vec_register_reads                 0                       # number of times the vector registers were read
system.cpu05.num_vec_register_writes                0                       # number of times the vector registers were written
system.cpu05.op_class::No_OpClass                   0                       # Class of executed instruction
system.cpu05.op_class::IntAlu                       0                       # Class of executed instruction
system.cpu05.op_class::IntMult                      0                       # Class of executed instruction
system.cpu05.op_class::IntDiv                       0                       # Class of executed instruction
system.cpu05.op_class::FloatAdd                     0                       # Class of executed instruction
system.cpu05.op_class::FloatCmp                     0                       # Class of executed instruction
system.cpu05.op_class::FloatCvt                     0                       # Class of executed instruction
system.cpu05.op_class::FloatMult                    0                       # Class of executed instruction
system.cpu05.op_class::FloatMultAcc                 0                       # Class of executed instruction
system.cpu05.op_class::FloatDiv                     0                       # Class of executed instruction
system.cpu05.op_class::FloatMisc                    0                       # Class of executed instruction
system.cpu05.op_class::FloatSqrt                    0                       # Class of executed instruction
system.cpu05.op_class::SimdAdd                      0                       # Class of executed instruction
system.cpu05.op_class::SimdAddAcc                   0                       # Class of executed instruction
system.cpu05.op_class::SimdAlu                      0                       # Class of executed instruction
system.cpu05.op_class::SimdCmp                      0                       # Class of executed instruction
system.cpu05.op_class::SimdCvt                      0                       # Class of executed instruction
system.cpu05.op_class::SimdMisc                     0                       # Class of executed instruction
system.cpu05.op_class::SimdMult                     0                       # Class of executed instruction
system.cpu05.op_class::SimdMultAcc                  0                       # Class of executed instruction
system.cpu05.op_class::SimdShift                    0                       # Class of executed instruction
system.cpu05.op_class::SimdShiftAcc                 0                       # Class of executed instruction
system.cpu05.op_class::SimdSqrt                     0                       # Class of executed instruction
system.cpu05.op_class::SimdFloatAdd                 0                       # Class of executed instruction
system.cpu05.op_class::SimdFloatAlu                 0                       # Class of executed instruction
system.cpu05.op_class::SimdFloatCmp                 0                       # Class of executed instruction
system.cpu05.op_class::SimdFloatCvt                 0                       # Class of executed instruction
system.cpu05.op_class::SimdFloatDiv                 0                       # Class of executed instruction
system.cpu05.op_class::SimdFloatMisc                0                       # Class of executed instruction
system.cpu05.op_class::SimdFloatMult                0                       # Class of executed instruction
system.cpu05.op_class::SimdFloatMultAcc             0                       # Class of executed instruction
system.cpu05.op_class::SimdFloatSqrt                0                       # Class of executed instruction
system.cpu05.op_class::SimdAes                      0                       # Class of executed instruction
system.cpu05.op_class::SimdAesMix                   0                       # Class of executed instruction
system.cpu05.op_class::SimdSha1Hash                 0                       # Class of executed instruction
system.cpu05.op_class::SimdSha1Hash2                0                       # Class of executed instruction
system.cpu05.op_class::SimdSha256Hash               0                       # Class of executed instruction
system.cpu05.op_class::SimdSha256Hash2              0                       # Class of executed instruction
system.cpu05.op_class::SimdShaSigma2                0                       # Class of executed instruction
system.cpu05.op_class::SimdShaSigma3                0                       # Class of executed instruction
system.cpu05.op_class::MemRead                      0                       # Class of executed instruction
system.cpu05.op_class::MemWrite                     0                       # Class of executed instruction
system.cpu05.op_class::FloatMemRead                 0                       # Class of executed instruction
system.cpu05.op_class::FloatMemWrite                0                       # Class of executed instruction
system.cpu05.op_class::IprAccess                    0                       # Class of executed instruction
system.cpu05.op_class::InstPrefetch                 0                       # Class of executed instruction
system.cpu05.op_class::total                        0                       # Class of executed instruction
system.cpu05.pwrStateResidencyTicks::ON    6292762070                       # Cumulative time (in ticks) in various power states
system.cpu06.apic_clk_domain.clock              26720                       # Clock period in ticks
system.cpu06.committedInsts                         0                       # Number of instructions committed
system.cpu06.committedOps                           0                       # Number of ops (including micro ops) committed
system.cpu06.dtb.pwrStateResidencyTicks::UNDEFINED   6292762070                       # Cumulative time (in ticks) in various power states
system.cpu06.dtb.rdAccesses                         0                       # TLB accesses on read requests
system.cpu06.dtb.rdMisses                           0                       # TLB misses on read requests
system.cpu06.dtb.walker.pwrStateResidencyTicks::UNDEFINED   6292762070                       # Cumulative time (in ticks) in various power states
system.cpu06.dtb.wrAccesses                         0                       # TLB accesses on write requests
system.cpu06.dtb.wrMisses                           0                       # TLB misses on write requests
system.cpu06.idle_fraction                          1                       # Percentage of idle cycles
system.cpu06.interrupts.pwrStateResidencyTicks::UNDEFINED   6292762070                       # Cumulative time (in ticks) in various power states
system.cpu06.itb.pwrStateResidencyTicks::UNDEFINED   6292762070                       # Cumulative time (in ticks) in various power states
system.cpu06.itb.rdAccesses                         0                       # TLB accesses on read requests
system.cpu06.itb.rdMisses                           0                       # TLB misses on read requests
system.cpu06.itb.walker.pwrStateResidencyTicks::UNDEFINED   6292762070                       # Cumulative time (in ticks) in various power states
system.cpu06.itb.wrAccesses                         0                       # TLB accesses on write requests
system.cpu06.itb.wrMisses                           0                       # TLB misses on write requests
system.cpu06.not_idle_fraction                      0                       # Percentage of non-idle cycles
system.cpu06.numCycles                              0                       # number of cpu cycles simulated
system.cpu06.numWorkItemsCompleted                  0                       # number of work items this cpu completed
system.cpu06.numWorkItemsStarted                    0                       # number of work items this cpu started
system.cpu06.num_busy_cycles                        0                       # Number of busy cycles
system.cpu06.num_conditional_control_insts            0                       # number of instructions that are conditional controls
system.cpu06.num_fp_alu_accesses                    0                       # Number of float alu accesses
system.cpu06.num_fp_insts                           0                       # number of float instructions
system.cpu06.num_fp_register_reads                  0                       # number of times the floating registers were read
system.cpu06.num_fp_register_writes                 0                       # number of times the floating registers were written
system.cpu06.num_func_calls                         0                       # number of times a function call or return occured
system.cpu06.num_idle_cycles                        0                       # Number of idle cycles
system.cpu06.num_int_alu_accesses                   0                       # Number of integer alu accesses
system.cpu06.num_int_insts                          0                       # number of integer instructions
system.cpu06.num_int_register_reads                 0                       # number of times the integer registers were read
system.cpu06.num_int_register_writes                0                       # number of times the integer registers were written
system.cpu06.num_load_insts                         0                       # Number of load instructions
system.cpu06.num_mem_refs                           0                       # number of memory refs
system.cpu06.num_store_insts                        0                       # Number of store instructions
system.cpu06.num_vec_alu_accesses                   0                       # Number of vector alu accesses
system.cpu06.num_vec_insts                          0                       # number of vector instructions
system.cpu06.num_vec_register_reads                 0                       # number of times the vector registers were read
system.cpu06.num_vec_register_writes                0                       # number of times the vector registers were written
system.cpu06.op_class::No_OpClass                   0                       # Class of executed instruction
system.cpu06.op_class::IntAlu                       0                       # Class of executed instruction
system.cpu06.op_class::IntMult                      0                       # Class of executed instruction
system.cpu06.op_class::IntDiv                       0                       # Class of executed instruction
system.cpu06.op_class::FloatAdd                     0                       # Class of executed instruction
system.cpu06.op_class::FloatCmp                     0                       # Class of executed instruction
system.cpu06.op_class::FloatCvt                     0                       # Class of executed instruction
system.cpu06.op_class::FloatMult                    0                       # Class of executed instruction
system.cpu06.op_class::FloatMultAcc                 0                       # Class of executed instruction
system.cpu06.op_class::FloatDiv                     0                       # Class of executed instruction
system.cpu06.op_class::FloatMisc                    0                       # Class of executed instruction
system.cpu06.op_class::FloatSqrt                    0                       # Class of executed instruction
system.cpu06.op_class::SimdAdd                      0                       # Class of executed instruction
system.cpu06.op_class::SimdAddAcc                   0                       # Class of executed instruction
system.cpu06.op_class::SimdAlu                      0                       # Class of executed instruction
system.cpu06.op_class::SimdCmp                      0                       # Class of executed instruction
system.cpu06.op_class::SimdCvt                      0                       # Class of executed instruction
system.cpu06.op_class::SimdMisc                     0                       # Class of executed instruction
system.cpu06.op_class::SimdMult                     0                       # Class of executed instruction
system.cpu06.op_class::SimdMultAcc                  0                       # Class of executed instruction
system.cpu06.op_class::SimdShift                    0                       # Class of executed instruction
system.cpu06.op_class::SimdShiftAcc                 0                       # Class of executed instruction
system.cpu06.op_class::SimdSqrt                     0                       # Class of executed instruction
system.cpu06.op_class::SimdFloatAdd                 0                       # Class of executed instruction
system.cpu06.op_class::SimdFloatAlu                 0                       # Class of executed instruction
system.cpu06.op_class::SimdFloatCmp                 0                       # Class of executed instruction
system.cpu06.op_class::SimdFloatCvt                 0                       # Class of executed instruction
system.cpu06.op_class::SimdFloatDiv                 0                       # Class of executed instruction
system.cpu06.op_class::SimdFloatMisc                0                       # Class of executed instruction
system.cpu06.op_class::SimdFloatMult                0                       # Class of executed instruction
system.cpu06.op_class::SimdFloatMultAcc             0                       # Class of executed instruction
system.cpu06.op_class::SimdFloatSqrt                0                       # Class of executed instruction
system.cpu06.op_class::SimdAes                      0                       # Class of executed instruction
system.cpu06.op_class::SimdAesMix                   0                       # Class of executed instruction
system.cpu06.op_class::SimdSha1Hash                 0                       # Class of executed instruction
system.cpu06.op_class::SimdSha1Hash2                0                       # Class of executed instruction
system.cpu06.op_class::SimdSha256Hash               0                       # Class of executed instruction
system.cpu06.op_class::SimdSha256Hash2              0                       # Class of executed instruction
system.cpu06.op_class::SimdShaSigma2                0                       # Class of executed instruction
system.cpu06.op_class::SimdShaSigma3                0                       # Class of executed instruction
system.cpu06.op_class::MemRead                      0                       # Class of executed instruction
system.cpu06.op_class::MemWrite                     0                       # Class of executed instruction
system.cpu06.op_class::FloatMemRead                 0                       # Class of executed instruction
system.cpu06.op_class::FloatMemWrite                0                       # Class of executed instruction
system.cpu06.op_class::IprAccess                    0                       # Class of executed instruction
system.cpu06.op_class::InstPrefetch                 0                       # Class of executed instruction
system.cpu06.op_class::total                        0                       # Class of executed instruction
system.cpu06.pwrStateResidencyTicks::ON    6292762070                       # Cumulative time (in ticks) in various power states
system.cpu07.apic_clk_domain.clock              26720                       # Clock period in ticks
system.cpu07.committedInsts                         0                       # Number of instructions committed
system.cpu07.committedOps                           0                       # Number of ops (including micro ops) committed
system.cpu07.dtb.pwrStateResidencyTicks::UNDEFINED   6292762070                       # Cumulative time (in ticks) in various power states
system.cpu07.dtb.rdAccesses                         0                       # TLB accesses on read requests
system.cpu07.dtb.rdMisses                           0                       # TLB misses on read requests
system.cpu07.dtb.walker.pwrStateResidencyTicks::UNDEFINED   6292762070                       # Cumulative time (in ticks) in various power states
system.cpu07.dtb.wrAccesses                         0                       # TLB accesses on write requests
system.cpu07.dtb.wrMisses                           0                       # TLB misses on write requests
system.cpu07.idle_fraction                          1                       # Percentage of idle cycles
system.cpu07.interrupts.pwrStateResidencyTicks::UNDEFINED   6292762070                       # Cumulative time (in ticks) in various power states
system.cpu07.itb.pwrStateResidencyTicks::UNDEFINED   6292762070                       # Cumulative time (in ticks) in various power states
system.cpu07.itb.rdAccesses                         0                       # TLB accesses on read requests
system.cpu07.itb.rdMisses                           0                       # TLB misses on read requests
system.cpu07.itb.walker.pwrStateResidencyTicks::UNDEFINED   6292762070                       # Cumulative time (in ticks) in various power states
system.cpu07.itb.wrAccesses                         0                       # TLB accesses on write requests
system.cpu07.itb.wrMisses                           0                       # TLB misses on write requests
system.cpu07.not_idle_fraction                      0                       # Percentage of non-idle cycles
system.cpu07.numCycles                              0                       # number of cpu cycles simulated
system.cpu07.numWorkItemsCompleted                  0                       # number of work items this cpu completed
system.cpu07.numWorkItemsStarted                    0                       # number of work items this cpu started
system.cpu07.num_busy_cycles                        0                       # Number of busy cycles
system.cpu07.num_conditional_control_insts            0                       # number of instructions that are conditional controls
system.cpu07.num_fp_alu_accesses                    0                       # Number of float alu accesses
system.cpu07.num_fp_insts                           0                       # number of float instructions
system.cpu07.num_fp_register_reads                  0                       # number of times the floating registers were read
system.cpu07.num_fp_register_writes                 0                       # number of times the floating registers were written
system.cpu07.num_func_calls                         0                       # number of times a function call or return occured
system.cpu07.num_idle_cycles                        0                       # Number of idle cycles
system.cpu07.num_int_alu_accesses                   0                       # Number of integer alu accesses
system.cpu07.num_int_insts                          0                       # number of integer instructions
system.cpu07.num_int_register_reads                 0                       # number of times the integer registers were read
system.cpu07.num_int_register_writes                0                       # number of times the integer registers were written
system.cpu07.num_load_insts                         0                       # Number of load instructions
system.cpu07.num_mem_refs                           0                       # number of memory refs
system.cpu07.num_store_insts                        0                       # Number of store instructions
system.cpu07.num_vec_alu_accesses                   0                       # Number of vector alu accesses
system.cpu07.num_vec_insts                          0                       # number of vector instructions
system.cpu07.num_vec_register_reads                 0                       # number of times the vector registers were read
system.cpu07.num_vec_register_writes                0                       # number of times the vector registers were written
system.cpu07.op_class::No_OpClass                   0                       # Class of executed instruction
system.cpu07.op_class::IntAlu                       0                       # Class of executed instruction
system.cpu07.op_class::IntMult                      0                       # Class of executed instruction
system.cpu07.op_class::IntDiv                       0                       # Class of executed instruction
system.cpu07.op_class::FloatAdd                     0                       # Class of executed instruction
system.cpu07.op_class::FloatCmp                     0                       # Class of executed instruction
system.cpu07.op_class::FloatCvt                     0                       # Class of executed instruction
system.cpu07.op_class::FloatMult                    0                       # Class of executed instruction
system.cpu07.op_class::FloatMultAcc                 0                       # Class of executed instruction
system.cpu07.op_class::FloatDiv                     0                       # Class of executed instruction
system.cpu07.op_class::FloatMisc                    0                       # Class of executed instruction
system.cpu07.op_class::FloatSqrt                    0                       # Class of executed instruction
system.cpu07.op_class::SimdAdd                      0                       # Class of executed instruction
system.cpu07.op_class::SimdAddAcc                   0                       # Class of executed instruction
system.cpu07.op_class::SimdAlu                      0                       # Class of executed instruction
system.cpu07.op_class::SimdCmp                      0                       # Class of executed instruction
system.cpu07.op_class::SimdCvt                      0                       # Class of executed instruction
system.cpu07.op_class::SimdMisc                     0                       # Class of executed instruction
system.cpu07.op_class::SimdMult                     0                       # Class of executed instruction
system.cpu07.op_class::SimdMultAcc                  0                       # Class of executed instruction
system.cpu07.op_class::SimdShift                    0                       # Class of executed instruction
system.cpu07.op_class::SimdShiftAcc                 0                       # Class of executed instruction
system.cpu07.op_class::SimdSqrt                     0                       # Class of executed instruction
system.cpu07.op_class::SimdFloatAdd                 0                       # Class of executed instruction
system.cpu07.op_class::SimdFloatAlu                 0                       # Class of executed instruction
system.cpu07.op_class::SimdFloatCmp                 0                       # Class of executed instruction
system.cpu07.op_class::SimdFloatCvt                 0                       # Class of executed instruction
system.cpu07.op_class::SimdFloatDiv                 0                       # Class of executed instruction
system.cpu07.op_class::SimdFloatMisc                0                       # Class of executed instruction
system.cpu07.op_class::SimdFloatMult                0                       # Class of executed instruction
system.cpu07.op_class::SimdFloatMultAcc             0                       # Class of executed instruction
system.cpu07.op_class::SimdFloatSqrt                0                       # Class of executed instruction
system.cpu07.op_class::SimdAes                      0                       # Class of executed instruction
system.cpu07.op_class::SimdAesMix                   0                       # Class of executed instruction
system.cpu07.op_class::SimdSha1Hash                 0                       # Class of executed instruction
system.cpu07.op_class::SimdSha1Hash2                0                       # Class of executed instruction
system.cpu07.op_class::SimdSha256Hash               0                       # Class of executed instruction
system.cpu07.op_class::SimdSha256Hash2              0                       # Class of executed instruction
system.cpu07.op_class::SimdShaSigma2                0                       # Class of executed instruction
system.cpu07.op_class::SimdShaSigma3                0                       # Class of executed instruction
system.cpu07.op_class::MemRead                      0                       # Class of executed instruction
[...]
system.ruby.network.routers08.pwrStateResidencyTicks::UNDEFINED   6292762070                       # Cumulative time (in ticks) in various power states
system.ruby.network.routers08.throttle0.link_utilization            0                      
system.ruby.network.routers08.throttle1.link_utilization            0                      
system.ruby.network.routers09.percent_links_utilized            0                      
system.ruby.network.routers09.pwrStateResidencyTicks::UNDEFINED   6292762070                       # Cumulative time (in ticks) in various power states
system.ruby.network.routers09.throttle0.link_utilization            0                      
system.ruby.network.routers09.throttle1.link_utilization            0                      
system.ruby.network.routers10.percent_links_utilized            0                      
system.ruby.network.routers10.pwrStateResidencyTicks::UNDEFINED   6292762070                       # Cumulative time (in ticks) in various power states
system.ruby.network.routers10.throttle0.link_utilization            0                      
system.ruby.network.routers10.throttle1.link_utilization            0                      
system.ruby.network.routers11.percent_links_utilized            0                      
system.ruby.network.routers11.pwrStateResidencyTicks::UNDEFINED   6292762070                       # Cumulative time (in ticks) in various power states
system.ruby.network.routers11.throttle0.link_utilization            0                      
system.ruby.network.routers11.throttle1.link_utilization            0                      
system.ruby.network.routers12.percent_links_utilized            0                      
system.ruby.network.routers12.pwrStateResidencyTicks::UNDEFINED   6292762070                       # Cumulative time (in ticks) in various power states
system.ruby.network.routers12.throttle0.link_utilization            0                      
system.ruby.network.routers12.throttle1.link_utilization            0                      
system.ruby.network.routers13.percent_links_utilized            0                      
system.ruby.network.routers13.pwrStateResidencyTicks::UNDEFINED   6292762070                       # Cumulative time (in ticks) in various power states
system.ruby.network.routers13.throttle0.link_utilization            0                      
system.ruby.network.routers13.throttle1.link_utilization            0                      
system.ruby.network.routers14.percent_links_utilized            0                      
system.ruby.network.routers14.pwrStateResidencyTicks::UNDEFINED   6292762070                       # Cumulative time (in ticks) in various power states
system.ruby.network.routers14.throttle0.link_utilization            0                      
system.ruby.network.routers14.throttle1.link_utilization            0                      
system.ruby.network.routers15.percent_links_utilized            0                      
system.ruby.network.routers15.pwrStateResidencyTicks::UNDEFINED   6292762070                       # Cumulative time (in ticks) in various power states
system.ruby.network.routers15.throttle0.link_utilization            0                      
system.ruby.network.routers15.throttle1.link_utilization            0                      
system.ruby.network.routers16.msg_bytes.Control::0       103704                      
system.ruby.network.routers16.msg_bytes.Request_Control::2          256                      
system.ruby.network.routers16.msg_bytes.Response_Control::1        14400                      
system.ruby.network.routers16.msg_bytes.Response_Control::2        44912                      
system.ruby.network.routers16.msg_bytes.Response_Data::1       523160                      
system.ruby.network.routers16.msg_bytes.Writeback_Data::0        61440                      
system.ruby.network.routers16.msg_count.Control::0        12963                      
system.ruby.network.routers16.msg_count.Request_Control::2           32                      
system.ruby.network.routers16.msg_count.Response_Control::1         1800                      
system.ruby.network.routers16.msg_count.Response_Control::2         5614                      
system.ruby.network.routers16.msg_count.Response_Data::1        13079                      
system.ruby.network.routers16.msg_count.Writeback_Data::0         1536                      
system.ruby.network.routers16.percent_links_utilized     0.185697                      
system.ruby.network.routers16.port_buffers00.avg_buf_msgs     0.000641                       # Average number of messages in buffer
system.ruby.network.routers16.port_buffers00.avg_stall_time  6646.065378                       # Average number of cycles messages are stalled in this MB
system.ruby.network.routers16.port_buffers01.avg_buf_msgs     0.000528                       # Average number of messages in buffer
system.ruby.network.routers16.port_buffers01.avg_stall_time  3000.084728                       # Average number of cycles messages are stalled in this MB
system.ruby.network.routers16.port_buffers02.avg_buf_msgs     0.000446                       # Average number of messages in buffer
system.ruby.network.routers16.port_buffers02.avg_stall_time  4451.380118                       # Average number of cycles messages are stalled in this MB
system.ruby.network.routers16.port_buffers03.avg_buf_msgs     0.000534                       # Average number of messages in buffer
system.ruby.network.routers16.port_buffers03.avg_stall_time  1553.874554                       # Average number of cycles messages are stalled in this MB
system.ruby.network.routers16.port_buffers04.avg_buf_msgs     0.000654                       # Average number of messages in buffer
system.ruby.network.routers16.port_buffers04.avg_stall_time  1010.810197                       # Average number of cycles messages are stalled in this MB
system.ruby.network.routers16.port_buffers05.avg_buf_msgs     0.000003                       # Average number of messages in buffer
system.ruby.network.routers16.port_buffers05.avg_stall_time   316.833776                       # Average number of cycles messages are stalled in this MB
system.ruby.network.routers16.pwrStateResidencyTicks::UNDEFINED   6292762070                       # Cumulative time (in ticks) in various power states
system.ruby.network.routers16.throttle0.link_utilization     0.207425                      
system.ruby.network.routers16.throttle0.msg_bytes.Control::0        52208                      
system.ruby.network.routers16.throttle0.msg_bytes.Response_Control::1         1648                      
system.ruby.network.routers16.throttle0.msg_bytes.Response_Control::2        44912                      
system.ruby.network.routers16.throttle0.msg_bytes.Response_Data::1       257480                      
system.ruby.network.routers16.throttle0.msg_bytes.Writeback_Data::0        61440                      
system.ruby.network.routers16.throttle0.msg_count.Control::0         6526                      
system.ruby.network.routers16.throttle0.msg_count.Response_Control::1          206                      
system.ruby.network.routers16.throttle0.msg_count.Response_Control::2         5614                      
system.ruby.network.routers16.throttle0.msg_count.Response_Data::1         6437                      
system.ruby.network.routers16.throttle0.msg_count.Writeback_Data::0         1536                      
system.ruby.network.routers16.throttle1.link_utilization     0.163970                      
system.ruby.network.routers16.throttle1.msg_bytes.Control::0        51496                      
system.ruby.network.routers16.throttle1.msg_bytes.Request_Control::2          256                      
system.ruby.network.routers16.throttle1.msg_bytes.Response_Control::1        12752                      
system.ruby.network.routers16.throttle1.msg_bytes.Response_Data::1       265680                      
system.ruby.network.routers16.throttle1.msg_count.Control::0         6437                      
system.ruby.network.routers16.throttle1.msg_count.Request_Control::2           32                      
system.ruby.network.routers16.throttle1.msg_count.Response_Control::1         1594                      
system.ruby.network.routers16.throttle1.msg_count.Response_Data::1         6642                      
system.ruby.network.routers17.msg_bytes.Control::0        51496                      
system.ruby.network.routers17.msg_bytes.Response_Control::1         1648                      
system.ruby.network.routers17.msg_bytes.Response_Data::1       263160                      
system.ruby.network.routers17.msg_count.Control::0         6437                      
system.ruby.network.routers17.msg_count.Response_Control::1          206                      
system.ruby.network.routers17.msg_count.Response_Data::1         6579                      
system.ruby.network.routers17.percent_links_utilized     0.078539                      
system.ruby.network.routers17.port_buffers00.avg_buf_msgs     0.000511                       # Average number of messages in buffer
system.ruby.network.routers17.port_buffers00.avg_stall_time  3554.058058                       # Average number of cycles messages are stalled in this MB
system.ruby.network.routers17.port_buffers01.avg_buf_msgs     0.000014                       # Average number of messages in buffer
system.ruby.network.routers17.port_buffers01.avg_stall_time  1108.910709                       # Average number of cycles messages are stalled in this MB
system.ruby.network.routers17.port_buffers03.avg_buf_msgs     0.000525                       # Average number of messages in buffer
system.ruby.network.routers17.port_buffers03.avg_stall_time   999.989194                       # Average number of cycles messages are stalled in this MB
system.ruby.network.routers17.pwrStateResidencyTicks::UNDEFINED   6292762070                       # Cumulative time (in ticks) in various power states
system.ruby.network.routers17.throttle0.link_utilization     0.028521                      
system.ruby.network.routers17.throttle0.msg_bytes.Control::0        51496                      
system.ruby.network.routers17.throttle0.msg_bytes.Response_Control::1          256                      
system.ruby.network.routers17.throttle0.msg_bytes.Response_Data::1         5680                      
system.ruby.network.routers17.throttle0.msg_count.Control::0         6437                      
system.ruby.network.routers17.throttle0.msg_count.Response_Control::1           32                      
system.ruby.network.routers17.throttle0.msg_count.Response_Data::1          142                      
system.ruby.network.routers17.throttle1.link_utilization     0.128556                      
system.ruby.network.routers17.throttle1.msg_bytes.Response_Control::1         1392                      
system.ruby.network.routers17.throttle1.msg_bytes.Response_Data::1       257480                      
system.ruby.network.routers17.throttle1.msg_count.Response_Control::1          174                      
system.ruby.network.routers17.throttle1.msg_count.Response_Data::1         6437                      
system.ruby.network.routers18.msg_bytes.Control::0       103704                      
system.ruby.network.routers18.msg_bytes.Request_Control::2          256                      
system.ruby.network.routers18.msg_bytes.Response_Control::1        14400                      
system.ruby.network.routers18.msg_bytes.Response_Control::2        44912                      
system.ruby.network.routers18.msg_bytes.Response_Data::1       523160                      
system.ruby.network.routers18.msg_bytes.Writeback_Data::0        61440                      
system.ruby.network.routers18.msg_count.Control::0        12963                      
system.ruby.network.routers18.msg_count.Request_Control::2           32                      
system.ruby.network.routers18.msg_count.Response_Control::1         1800                      
system.ruby.network.routers18.msg_count.Response_Control::2         5614                      
system.ruby.network.routers18.msg_count.Response_Data::1        13079                      
system.ruby.network.routers18.msg_count.Writeback_Data::0         1536                      
system.ruby.network.routers18.percent_links_utilized     0.020633                      
system.ruby.network.routers18.port_buffers001.avg_buf_msgs     0.000641                       # Average number of messages in buffer
system.ruby.network.routers18.port_buffers001.avg_stall_time  2009.164497                       # Average number of cycles messages are stalled in this MB
system.ruby.network.routers18.port_buffers002.avg_buf_msgs     0.000003                       # Average number of messages in buffer
system.ruby.network.routers18.port_buffers002.avg_stall_time   633.667235                       # Average number of cycles messages are stalled in this MB
system.ruby.network.routers18.port_buffers048.avg_buf_msgs     0.000641                       # Average number of messages in buffer
system.ruby.network.routers18.port_buffers048.avg_stall_time  5646.067621                       # Average number of cycles messages are stalled in this MB
system.ruby.network.routers18.port_buffers049.avg_buf_msgs     0.000528                       # Average number of messages in buffer
system.ruby.network.routers18.port_buffers049.avg_stall_time  2000.096170                       # Average number of cycles messages are stalled in this MB
system.ruby.network.routers18.port_buffers050.avg_buf_msgs     0.000446                       # Average number of messages in buffer
system.ruby.network.routers18.port_buffers050.avg_stall_time  3451.418796                       # Average number of cycles messages are stalled in this MB
system.ruby.network.routers18.port_buffers051.avg_buf_msgs     0.000512                       # Average number of messages in buffer
system.ruby.network.routers18.port_buffers051.avg_stall_time  2554.060363                       # Average number of cycles messages are stalled in this MB
system.ruby.network.routers18.port_buffers052.avg_buf_msgs     0.000014                       # Average number of messages in buffer
system.ruby.network.routers18.port_buffers052.avg_stall_time   792.079475                       # Average number of cycles messages are stalled in this MB
system.ruby.network.routers18.pwrStateResidencyTicks::UNDEFINED   6292762070                       # Cumulative time (in ticks) in various power states
system.ruby.network.routers18.throttle0.link_utilization     0.135449                      
system.ruby.network.routers18.throttle0.msg_bytes.Request_Control::2          256                      
system.ruby.network.routers18.throttle0.msg_bytes.Response_Control::1        12496                      
system.ruby.network.routers18.throttle0.msg_bytes.Response_Data::1       260000                      
system.ruby.network.routers18.throttle0.msg_count.Request_Control::2           32                      
system.ruby.network.routers18.throttle0.msg_count.Response_Control::1         1562                      
system.ruby.network.routers18.throttle0.msg_count.Response_Data::1         6500                      
system.ruby.network.routers18.throttle1.link_utilization            0                      
system.ruby.network.routers18.throttle10.link_utilization            0                      
system.ruby.network.routers18.throttle11.link_utilization            0                      
system.ruby.network.routers18.throttle12.link_utilization            0                      
system.ruby.network.routers18.throttle13.link_utilization            0                      
system.ruby.network.routers18.throttle14.link_utilization            0                      
system.ruby.network.routers18.throttle15.link_utilization            0                      
system.ruby.network.routers18.throttle16.link_utilization     0.207425                      
system.ruby.network.routers18.throttle16.msg_bytes.Control::0        52208                      
system.ruby.network.routers18.throttle16.msg_bytes.Response_Control::1         1648                      
system.ruby.network.routers18.throttle16.msg_bytes.Response_Control::2        44912                      
system.ruby.network.routers18.throttle16.msg_bytes.Response_Data::1       257480                      
system.ruby.network.routers18.throttle16.msg_bytes.Writeback_Data::0        61440                      
system.ruby.network.routers18.throttle16.msg_count.Control::0         6526                      
system.ruby.network.routers18.throttle16.msg_count.Response_Control::1          206                      
system.ruby.network.routers18.throttle16.msg_count.Response_Control::2         5614                      
system.ruby.network.routers18.throttle16.msg_count.Response_Data::1         6437                      
system.ruby.network.routers18.throttle16.msg_count.Writeback_Data::0         1536                      
system.ruby.network.routers18.throttle17.link_utilization     0.028521                      
system.ruby.network.routers18.throttle17.msg_bytes.Control::0        51496                      
system.ruby.network.routers18.throttle17.msg_bytes.Response_Control::1          256                      
system.ruby.network.routers18.throttle17.msg_bytes.Response_Data::1         5680                      
system.ruby.network.routers18.throttle17.msg_count.Control::0         6437                      
system.ruby.network.routers18.throttle17.msg_count.Response_Control::1           32                      
system.ruby.network.routers18.throttle17.msg_count.Response_Data::1          142                      
system.ruby.network.routers18.throttle2.link_utilization            0                      
system.ruby.network.routers18.throttle3.link_utilization            0                      
system.ruby.network.routers18.throttle4.link_utilization            0                      
system.ruby.network.routers18.throttle5.link_utilization            0                      
system.ruby.network.routers18.throttle6.link_utilization            0                      
system.ruby.network.routers18.throttle7.link_utilization            0                      
system.ruby.network.routers18.throttle8.link_utilization            0                      
system.ruby.network.routers18.throttle9.link_utilization            0                      
system.ruby.outstanding_req_hist_seqr::bucket_size            1                      
system.ruby.outstanding_req_hist_seqr::max_bucket            9                      
system.ruby.outstanding_req_hist_seqr::samples      1724012                      
system.ruby.outstanding_req_hist_seqr::mean     1.000001                      
system.ruby.outstanding_req_hist_seqr::gmean     1.000000                      
system.ruby.outstanding_req_hist_seqr::stdev     0.000762                      
system.ruby.outstanding_req_hist_seqr    |           0      0.00%      0.00% |     1724011    100.00%    100.00% |           1      0.00%    100.00% |           0      0.00%    100.00% |           0      0.00%    100.00% |           0      0.00%    100.00% |           0      0.00%    100.00% |           0      0.00%    100.00% |           0      0.00%    100.00% |           0      0.00%    100.00%
system.ruby.outstanding_req_hist_seqr::total      1724012                      
system.ruby.pwrStateResidencyTicks::UNDEFINED   6292762070                       # Cumulative time (in ticks) in various power states
system.sys_port_proxy.pwrStateResidencyTicks::UNDEFINED   6292762070                       # Cumulative time (in ticks) in various power states
system.voltage_domain.voltage                       1                       # Voltage in Volts

---------- End Simulation Statistics   ----------
