
---------- Begin Simulation Statistics ----------
final_tick                                 5000000000                       # Number of ticks from beginning of simulation (restored from checkpoints and never reset)
host_inst_rate                                 173897                       # Simulator instruction rate (inst/s)
host_mem_usage                                 996504                       # Number of bytes of host memory used
host_op_rate                                   307658                       # Simulator op (including micro ops) rate (op/s)
host_seconds                                     4.00                       # Real time elapsed on the host
host_tick_rate                             1249177730                       # Simulator tick rate (ticks/s)
sim_freq                                 1000000000000                       # Frequency of simulated ticks
sim_insts                                      696012                       # Number of instructions simulated
sim_ops                                       1231437                       # Number of ops (including micro ops) simulated
sim_seconds                                  0.005000                       # Number of seconds simulated
sim_ticks                                  5000000000                       # Number of ticks simulated
system.clk_domain.clock                          1000                       # Clock period in ticks
system.cpu00.Branches                          146564                       # Number of branches fetched
system.cpu00.apic_clk_domain.clock              26720                       # Clock period in ticks
system.cpu00.committedInsts                    696012                       # Number of instructions committed
system.cpu00.committedOps                     1231437                       # Number of ops (including micro ops) committed
system.cpu00.dtb.pwrStateResidencyTicks::UNDEFINED   5000000000                       # Cumulative time (in ticks) in various power states
system.cpu00.dtb.rdAccesses                     69764                       # TLB accesses on read requests
system.cpu00.dtb.rdMisses                         158                       # TLB misses on read requests
system.cpu00.dtb.walker.pwrStateResidencyTicks::UNDEFINED   5000000000                       # Cumulative time (in ticks) in various power states
system.cpu00.dtb.wrAccesses                    121785                       # TLB accesses on write requests
system.cpu00.dtb.wrMisses                        1281                       # TLB misses on write requests
system.cpu00.idle_fraction                          0                       # Percentage of idle cycles
system.cpu00.interrupts.pwrStateResidencyTicks::UNDEFINED   5000000000                       # Cumulative time (in ticks) in various power states
system.cpu00.itb.pwrStateResidencyTicks::UNDEFINED   5000000000                       # Cumulative time (in ticks) in various power states
system.cpu00.itb.rdAccesses                         0                       # TLB accesses on read requests
system.cpu00.itb.rdMisses                           0                       # TLB misses on read requests
system.cpu00.itb.walker.pwrStateResidencyTicks::UNDEFINED   5000000000                       # Cumulative time (in ticks) in various power states
system.cpu00.itb.wrAccesses                    818979                       # TLB accesses on write requests
system.cpu00.itb.wrMisses                          68                       # TLB misses on write requests
system.cpu00.not_idle_fraction                      1                       # Percentage of non-idle cycles
system.cpu00.numCycles                        2993973                       # number of cpu cycles simulated
system.cpu00.numWorkItemsCompleted                  0                       # number of work items this cpu completed
system.cpu00.numWorkItemsStarted                    0                       # number of work items this cpu started
system.cpu00.num_busy_cycles                  2993973                       # Number of busy cycles
system.cpu00.num_cc_register_reads             737436                       # number of times the CC registers were read
system.cpu00.num_cc_register_writes            645266                       # number of times the CC registers were written
system.cpu00.num_conditional_control_insts       126455                       # number of instructions that are conditional controls
system.cpu00.num_fp_alu_accesses                  930                       # Number of float alu accesses
system.cpu00.num_fp_insts                         930                       # number of float instructions
system.cpu00.num_fp_register_reads               1504                       # number of times the floating registers were read
system.cpu00.num_fp_register_writes               705                       # number of times the floating registers were written
system.cpu00.num_func_calls                      9747                       # number of times a function call or return occured
system.cpu00.num_idle_cycles                        0                       # Number of idle cycles
system.cpu00.num_int_alu_accesses             1219715                       # Number of integer alu accesses
system.cpu00.num_int_insts                    1219715                       # number of integer instructions
system.cpu00.num_int_register_reads           2295733                       # number of times the integer registers were read
system.cpu00.num_int_register_writes           985981                       # number of times the integer registers were written
system.cpu00.num_load_insts                     69761                       # Number of load instructions
system.cpu00.num_mem_refs                      191545                       # number of memory refs
system.cpu00.num_store_insts                   121784                       # Number of store instructions
system.cpu00.num_vec_alu_accesses                   0                       # Number of vector alu accesses
system.cpu00.num_vec_insts                          0                       # number of vector instructions
system.cpu00.num_vec_register_reads                 0                       # number of times the vector registers were read
system.cpu00.num_vec_register_writes                0                       # number of times the vector registers were written
system.cpu00.op_class::No_OpClass                5248      0.43%      0.43% # Class of executed instruction
system.cpu00.op_class::IntAlu                 1017782     82.65%     83.08% # Class of executed instruction
system.cpu00.op_class::IntMult                    579      0.05%     83.12% # Class of executed instruction
system.cpu00.op_class::IntDiv                   15636      1.27%     84.39% # Class of executed instruction
system.cpu00.op_class::FloatAdd                    15      0.00%     84.39% # Class of executed instruction
system.cpu00.op_class::FloatCmp                     0      0.00%     84.39% # Class of executed instruction
system.cpu00.op_class::FloatCvt                     0      0.00%     84.39% # Class of executed instruction
system.cpu00.op_class::FloatMult                    0      0.00%     84.39% # Class of executed instruction
system.cpu00.op_class::FloatMultAcc                 0      0.00%     84.39% # Class of executed instruction
system.cpu00.op_class::FloatDiv                     0      0.00%     84.39% # Class of executed instruction
system.cpu00.op_class::FloatMisc                    8      0.00%     84.39% # Class of executed instruction
system.cpu00.op_class::FloatSqrt                    0      0.00%     84.39% # Class of executed instruction
system.cpu00.op_class::SimdAdd                      0      0.00%     84.39% # Class of executed instruction
system.cpu00.op_class::SimdAddAcc                   0      0.00%     84.39% # Class of executed instruction
system.cpu00.op_class::SimdAlu                    103      0.01%     84.40% # Class of executed instruction
system.cpu00.op_class::SimdCmp                      0      0.00%     84.40% # Class of executed instruction
system.cpu00.op_class::SimdCvt                    174      0.01%     84.42% # Class of executed instruction
system.cpu00.op_class::SimdMisc                   310      0.03%     84.44% # Class of executed instruction
system.cpu00.op_class::SimdMult                     0      0.00%     84.44% # Class of executed instruction
system.cpu00.op_class::SimdMultAcc                  0      0.00%     84.44% # Class of executed instruction
system.cpu00.op_class::SimdShift                   26      0.00%     84.44% # Class of executed instruction
system.cpu00.op_class::SimdShiftAcc                 0      0.00%     84.44% # Class of executed instruction
system.cpu00.op_class::SimdSqrt                     0      0.00%     84.44% # Class of executed instruction
system.cpu00.op_class::SimdFloatAdd                 7      0.00%     84.45% # Class of executed instruction
system.cpu00.op_class::SimdFloatAlu                 0      0.00%     84.45% # Class of executed instruction
system.cpu00.op_class::SimdFloatCmp                 0      0.00%     84.45% # Class of executed instruction
system.cpu00.op_class::SimdFloatCvt                 3      0.00%     84.45% # Class of executed instruction
system.cpu00.op_class::SimdFloatDiv                 0      0.00%     84.45% # Class of executed instruction
system.cpu00.op_class::SimdFloatMisc                0      0.00%     84.45% # Class of executed instruction
system.cpu00.op_class::SimdFloatMult                0      0.00%     84.45% # Class of executed instruction
system.cpu00.op_class::SimdFloatMultAcc             0      0.00%     84.45% # Class of executed instruction
system.cpu00.op_class::SimdFloatSqrt                1      0.00%     84.45% # Class of executed instruction
system.cpu00.op_class::SimdAes                      0      0.00%     84.45% # Class of executed instruction
system.cpu00.op_class::SimdAesMix                   0      0.00%     84.45% # Class of executed instruction
system.cpu00.op_class::SimdSha1Hash                 0      0.00%     84.45% # Class of executed instruction
system.cpu00.op_class::SimdSha1Hash2                0      0.00%     84.45% # Class of executed instruction
system.cpu00.op_class::SimdSha256Hash               0      0.00%     84.45% # Class of executed instruction
system.cpu00.op_class::SimdSha256Hash2              0      0.00%     84.45% # Class of executed instruction
system.cpu00.op_class::SimdShaSigma2                0      0.00%     84.45% # Class of executed instruction
system.cpu00.op_class::SimdShaSigma3                0      0.00%     84.45% # Class of executed instruction
system.cpu00.op_class::MemRead                  69622      5.65%     90.10% # Class of executed instruction
system.cpu00.op_class::MemWrite                121749      9.89%     99.99% # Class of executed instruction
system.cpu00.op_class::FloatMemRead               139      0.01%    100.00% # Class of executed instruction
system.cpu00.op_class::FloatMemWrite               35      0.00%    100.00% # Class of executed instruction
system.cpu00.op_class::IprAccess                    0      0.00%    100.00% # Class of executed instruction
system.cpu00.op_class::InstPrefetch                 0      0.00%    100.00% # Class of executed instruction
system.cpu00.op_class::total                  1231437                       # Class of executed instruction
system.cpu00.pwrStateResidencyTicks::ON    5000000000                       # Cumulative time (in ticks) in various power states
system.cpu00.workload.numSyscalls                 436                       # Number of system calls
system.cpu01.apic_clk_domain.clock              26720                       # Clock period in ticks
system.cpu01.committedInsts                         0                       # Number of instructions committed
system.cpu01.committedOps                           0                       # Number of ops (including micro ops) committed
system.cpu01.dtb.pwrStateResidencyTicks::UNDEFINED   5000000000                       # Cumulative time (in ticks) in various power states
system.cpu01.dtb.rdAccesses                         0                       # TLB accesses on read requests
system.cpu01.dtb.rdMisses                           0                       # TLB misses on read requests
system.cpu01.dtb.walker.pwrStateResidencyTicks::UNDEFINED   5000000000                       # Cumulative time (in ticks) in various power states
system.cpu01.dtb.wrAccesses                         0                       # TLB accesses on write requests
system.cpu01.dtb.wrMisses                           0                       # TLB misses on write requests
system.cpu01.idle_fraction                          1                       # Percentage of idle cycles
system.cpu01.interrupts.pwrStateResidencyTicks::UNDEFINED   5000000000                       # Cumulative time (in ticks) in various power states
system.cpu01.itb.pwrStateResidencyTicks::UNDEFINED   5000000000                       # Cumulative time (in ticks) in various power states
system.cpu01.itb.rdAccesses                         0                       # TLB accesses on read requests
system.cpu01.itb.rdMisses                           0                       # TLB misses on read requests
system.cpu01.itb.walker.pwrStateResidencyTicks::UNDEFINED   5000000000                       # Cumulative time (in ticks) in various power states
system.cpu01.itb.wrAccesses                         0                       # TLB accesses on write requests
system.cpu01.itb.wrMisses                           0                       # TLB misses on write requests
system.cpu01.not_idle_fraction                      0                       # Percentage of non-idle cycles
system.cpu01.numCycles                              0                       # number of cpu cycles simulated
system.cpu01.numWorkItemsCompleted                  0                       # number of work items this cpu completed
system.cpu01.numWorkItemsStarted                    0                       # number of work items this cpu started
system.cpu01.num_busy_cycles                        0                       # Number of busy cycles
system.cpu01.num_conditional_control_insts            0                       # number of instructions that are conditional controls
system.cpu01.num_fp_alu_accesses                    0                       # Number of float alu accesses
system.cpu01.num_fp_insts                           0                       # number of float instructions
system.cpu01.num_fp_register_reads                  0                       # number of times the floating registers were read
system.cpu01.num_fp_register_writes                 0                       # number of times the floating registers were written
system.cpu01.num_func_calls                         0                       # number of times a function call or return occured
system.cpu01.num_idle_cycles                        0                       # Number of idle cycles
system.cpu01.num_int_alu_accesses                   0                       # Number of integer alu accesses
system.cpu01.num_int_insts                          0                       # number of integer instructions
system.cpu01.num_int_register_reads                 0                       # number of times the integer registers were read
system.cpu01.num_int_register_writes                0                       # number of times the integer registers were written
system.cpu01.num_load_insts                         0                       # Number of load instructions
system.cpu01.num_mem_refs                           0                       # number of memory refs
system.cpu01.num_store_insts                        0                       # Number of store instructions
system.cpu01.num_vec_alu_accesses                   0                       # Number of vector alu accesses
system.cpu01.num_vec_insts                          0                       # number of vector instructions
system.cpu01.num_vec_register_reads                 0                       # number of times the vector registers were read
system.cpu01.num_vec_register_writes                0                       # number of times the vector registers were written
system.cpu01.op_class::No_OpClass                   0                       # Class of executed instruction
system.cpu01.op_class::IntAlu                       0                       # Class of executed instruction
system.cpu01.op_class::IntMult                      0                       # Class of executed instruction
system.cpu01.op_class::IntDiv                       0                       # Class of executed instruction
system.cpu01.op_class::FloatAdd                     0                       # Class of executed instruction
system.cpu01.op_class::FloatCmp                     0                       # Class of executed instruction
system.cpu01.op_class::FloatCvt                     0                       # Class of executed instruction
system.cpu01.op_class::FloatMult                    0                       # Class of executed instruction
system.cpu01.op_class::FloatMultAcc                 0                       # Class of executed instruction
system.cpu01.op_class::FloatDiv                     0                       # Class of executed instruction
system.cpu01.op_class::FloatMisc                    0                       # Class of executed instruction
system.cpu01.op_class::FloatSqrt                    0                       # Class of executed instruction
system.cpu01.op_class::SimdAdd                      0                       # Class of executed instruction
system.cpu01.op_class::SimdAddAcc                   0                       # Class of executed instruction
system.cpu01.op_class::SimdAlu                      0                       # Class of executed instruction
system.cpu01.op_class::SimdCmp                      0                       # Class of executed instruction
system.cpu01.op_class::SimdCvt                      0                       # Class of executed instruction
system.cpu01.op_class::SimdMisc                     0                       # Class of executed instruction
system.cpu01.op_class::SimdMult                     0                       # Class of executed instruction
system.cpu01.op_class::SimdMultAcc                  0                       # Class of executed instruction
system.cpu01.op_class::SimdShift                    0                       # Class of executed instruction
system.cpu01.op_class::SimdShiftAcc                 0                       # Class of executed instruction
system.cpu01.op_class::SimdSqrt                     0                       # Class of executed instruction
system.cpu01.op_class::SimdFloatAdd                 0                       # Class of executed instruction
system.cpu01.op_class::SimdFloatAlu                 0                       # Class of executed instruction
system.cpu01.op_class::SimdFloatCmp                 0                       # Class of executed instruction
system.cpu01.op_class::SimdFloatCvt                 0                       # Class of executed instruction
system.cpu01.op_class::SimdFloatDiv                 0                       # Class of executed instruction
system.cpu01.op_class::SimdFloatMisc                0                       # Class of executed instruction
system.cpu01.op_class::SimdFloatMult                0                       # Class of executed instruction
system.cpu01.op_class::SimdFloatMultAcc             0                       # Class of executed instruction
system.cpu01.op_class::SimdFloatSqrt                0                       # Class of executed instruction
system.cpu01.op_class::SimdAes                      0                       # Class of executed instruction
system.cpu01.op_class::SimdAesMix                   0                       # Class of executed instruction
system.cpu01.op_class::SimdSha1Hash                 0                       # Class of executed instruction
system.cpu01.op_class::SimdSha1Hash2                0                       # Class of executed instruction
system.cpu01.op_class::SimdSha256Hash               0                       # Class of executed instruction
system.cpu01.op_class::SimdSha256Hash2              0                       # Class of executed instruction
system.cpu01.op_class::SimdShaSigma2                0                       # Class of executed instruction
system.cpu01.op_class::SimdShaSigma3                0                       # Class of executed instruction
system.cpu01.op_class::MemRead                      0                       # Class of executed instruction
system.cpu01.op_class::MemWrite                     0                       # Class of executed instruction
system.cpu01.op_class::FloatMemRead                 0                       # Class of executed instruction
system.cpu01.op_class::FloatMemWrite                0                       # Class of executed instruction
system.cpu01.op_class::IprAccess                    0                       # Class of executed instruction
system.cpu01.op_class::InstPrefetch                 0                       # Class of executed instruction
system.cpu01.op_class::total                        0                       # Class of executed instruction
system.cpu01.pwrStateResidencyTicks::ON    5000000000                       # Cumulative time (in ticks) in various power states
system.cpu02.apic_clk_domain.clock              26720                       # Clock period in ticks
system.cpu02.committedInsts                         0                       # Number of instructions committed
system.cpu02.committedOps                           0                       # Number of ops (including micro ops) committed
system.cpu02.dtb.pwrStateResidencyTicks::UNDEFINED   5000000000                       # Cumulative time (in ticks) in various power states
system.cpu02.dtb.rdAccesses                         0                       # TLB accesses on read requests
system.cpu02.dtb.rdMisses                           0                       # TLB misses on read requests
system.cpu02.dtb.walker.pwrStateResidencyTicks::UNDEFINED   5000000000                       # Cumulative time (in ticks) in various power states
system.cpu02.dtb.wrAccesses                         0                       # TLB accesses on write requests
system.cpu02.dtb.wrMisses                           0                       # TLB misses on write requests
system.cpu02.idle_fraction                          1                       # Percentage of idle cycles
system.cpu02.interrupts.pwrStateResidencyTicks::UNDEFINED   5000000000                       # Cumulative time (in ticks) in various power states
system.cpu02.itb.pwrStateResidencyTicks::UNDEFINED   5000000000                       # Cumulative time (in ticks) in various power states
system.cpu02.itb.rdAccesses                         0                       # TLB accesses on read requests
system.cpu02.itb.rdMisses                           0                       # TLB misses on read requests
system.cpu02.itb.walker.pwrStateResidencyTicks::UNDEFINED   5000000000                       # Cumulative time (in ticks) in various power states
system.cpu02.itb.wrAccesses                         0                       # TLB accesses on write requests
system.cpu02.itb.wrMisses                           0                       # TLB misses on write requests
system.cpu02.not_idle_fraction                      0                       # Percentage of non-idle cycles
system.cpu02.numCycles                              0                       # number of cpu cycles simulated
system.cpu02.numWorkItemsCompleted                  0                       # number of work items this cpu completed
system.cpu02.numWorkItemsStarted                    0                       # number of work items this cpu started
system.cpu02.num_busy_cycles                        0                       # Number of busy cycles
system.cpu02.num_conditional_control_insts            0                       # number of instructions that are conditional controls
system.cpu02.num_fp_alu_accesses                    0                       # Number of float alu accesses
system.cpu02.num_fp_insts                           0                       # number of float instructions
system.cpu02.num_fp_register_reads                  0                       # number of times the floating registers were read
system.cpu02.num_fp_register_writes                 0                       # number of times the floating registers were written
system.cpu02.num_func_calls                         0                       # number of times a function call or return occured
system.cpu02.num_idle_cycles                        0                       # Number of idle cycles
system.cpu02.num_int_alu_accesses                   0                       # Number of integer alu accesses
system.cpu02.num_int_insts                          0                       # number of integer instructions
system.cpu02.num_int_register_reads                 0                       # number of times the integer registers were read
system.cpu02.num_int_register_writes                0                       # number of times the integer registers were written
system.cpu02.num_load_insts                         0                       # Number of load instructions
system.cpu02.num_mem_refs                           0                       # number of memory refs
system.cpu02.num_store_insts                        0                       # Number of store instructions
system.cpu02.num_vec_alu_accesses                   0                       # Number of vector alu accesses
system.cpu02.num_vec_insts                          0                       # number of vector instructions
system.cpu02.num_vec_register_reads                 0                       # number of times the vector registers were read
system.cpu02.num_vec_register_writes                0                       # number of times the vector registers were written
system.cpu02.op_class::No_OpClass                   0                       # Class of executed instruction
system.cpu02.op_class::IntAlu                       0                       # Class of executed instruction
system.cpu02.op_class::IntMult                      0                       # Class of executed instruction
system.cpu02.op_class::IntDiv                       0                       # Class of executed instruction
system.cpu02.op_class::FloatAdd                     0                       # Class of executed instruction
system.cpu02.op_class::FloatCmp                     0                       # Class of executed instruction
system.cpu02.op_class::FloatCvt                     0                       # Class of executed instruction
system.cpu02.op_class::FloatMult                    0                       # Class of executed instruction
system.cpu02.op_class::FloatMultAcc                 0                       # Class of executed instruction
system.cpu02.op_class::FloatDiv                     0                       # Class of executed instruction
system.cpu02.op_class::FloatMisc                    0                       # Class of executed instruction
system.cpu02.op_class::FloatSqrt                    0                       # Class of executed instruction
system.cpu02.op_class::SimdAdd                      0                       # Class of executed instruction
system.cpu02.op_class::SimdAddAcc                   0                       # Class of executed instruction
system.cpu02.op_class::SimdAlu                      0                       # Class of executed instruction
system.cpu02.op_class::SimdCmp                      0                       # Class of executed instruction
system.cpu02.op_class::SimdCvt                      0                       # Class of executed instruction
system.cpu02.op_class::SimdMisc                     0                       # Class of executed instruction
system.cpu02.op_class::SimdMult                     0                       # Class of executed instruction
system.cpu02.op_class::SimdMultAcc                  0                       # Class of executed instruction
system.cpu02.op_class::SimdShift                    0                       # Class of executed instruction
system.cpu02.op_class::SimdShiftAcc                 0                       # Class of executed instruction
system.cpu02.op_class::SimdSqrt                     0                       # Class of executed instruction
system.cpu02.op_class::SimdFloatAdd                 0                       # Class of executed instruction
system.cpu02.op_class::SimdFloatAlu                 0                       # Class of executed instruction
system.cpu02.op_class::SimdFloatCmp                 0                       # Class of executed instruction
system.cpu02.op_class::SimdFloatCvt                 0                       # Class of executed instruction
system.cpu02.op_class::SimdFloatDiv                 0                       # Class of executed instruction
system.cpu02.op_class::SimdFloatMisc                0                       # Class of executed instruction
system.cpu02.op_class::SimdFloatMult                0                       # Class of executed instruction
system.cpu02.op_class::SimdFloatMultAcc             0                       # Class of executed instruction
system.cpu02.op_class::SimdFloatSqrt                0                       # Class of executed instruction
system.cpu02.op_class::SimdAes                      0                       # Class of executed instruction
system.cpu02.op_class::SimdAesMix                   0                       # Class of executed instruction
system.cpu02.op_class::SimdSha1Hash                 0                       # Class of executed instruction
system.cpu02.op_class::SimdSha1Hash2                0                       # Class of executed instruction
system.cpu02.op_class::SimdSha256Hash               0                       # Class of executed instruction
system.cpu02.op_class::SimdSha256Hash2              0                       # Class of executed instruction
system.cpu02.op_class::SimdShaSigma2                0                       # Class of executed instruction
system.cpu02.op_class::SimdShaSigma3                0                       # Class of executed instruction
system.cpu02.op_class::MemRead                      0                       # Class of executed instruction
system.cpu02.op_class::MemWrite                     0                       # Class of executed instruction
system.cpu02.op_class::FloatMemRead                 0                       # Class of executed instruction
system.cpu02.op_class::FloatMemWrite                0                       # Class of executed instruction
system.cpu02.op_class::IprAccess                    0                       # Class of executed instruction
system.cpu02.op_class::InstPrefetch                 0                       # Class of executed instruction
system.cpu02.op_class::total                        0                       # Class of executed instruction
system.cpu02.pwrStateResidencyTicks::ON    5000000000                       # Cumulative time (in ticks) in various power states
system.cpu03.apic_clk_domain.clock              26720                       # Clock period in ticks
system.cpu03.committedInsts                         0                       # Number of instructions committed
system.cpu03.committedOps                           0                       # Number of ops (including micro ops) committed
system.cpu03.dtb.pwrStateResidencyTicks::UNDEFINED   5000000000                       # Cumulative time (in ticks) in various power states
system.cpu03.dtb.rdAccesses                         0                       # TLB accesses on read requests
system.cpu03.dtb.rdMisses                           0                       # TLB misses on read requests
system.cpu03.dtb.walker.pwrStateResidencyTicks::UNDEFINED   5000000000                       # Cumulative time (in ticks) in various power states
system.cpu03.dtb.wrAccesses                         0                       # TLB accesses on write requests
system.cpu03.dtb.wrMisses                           0                       # TLB misses on write requests
system.cpu03.idle_fraction                          1                       # Percentage of idle cycles
system.cpu03.interrupts.pwrStateResidencyTicks::UNDEFINED   5000000000                       # Cumulative time (in ticks) in various power states
system.cpu03.itb.pwrStateResidencyTicks::UNDEFINED   5000000000                       # Cumulative time (in ticks) in various power states
system.cpu03.itb.rdAccesses                         0                       # TLB accesses on read requests
system.cpu03.itb.rdMisses                           0                       # TLB misses on read requests
system.cpu03.itb.walker.pwrStateResidencyTicks::UNDEFINED   5000000000                       # Cumulative time (in ticks) in various power states
system.cpu03.itb.wrAccesses                         0                       # TLB accesses on write requests
system.cpu03.itb.wrMisses                           0                       # TLB misses on write requests
system.cpu03.not_idle_fraction                      0                       # Percentage of non-idle cycles
system.cpu03.numCycles                              0                       # number of cpu cycles simulated
system.cpu03.numWorkItemsCompleted                  0                       # number of work items this cpu completed
system.cpu03.numWorkItemsStarted                    0                       # number of work items this cpu started
system.cpu03.num_busy_cycles                        0                       # Number of busy cycles
system.cpu03.num_conditional_control_insts            0                       # number of instructions that are conditional controls
system.cpu03.num_fp_alu_accesses                    0                       # Number of float alu accesses
system.cpu03.num_fp_insts                           0                       # number of float instructions
system.cpu03.num_fp_register_reads                  0                       # number of times the floating registers were read
system.cpu03.num_fp_register_writes                 0                       # number of times the floating registers were written
system.cpu03.num_func_calls                         0                       # number of times a function call or return occured
system.cpu03.num_idle_cycles                        0                       # Number of idle cycles
system.cpu03.num_int_alu_accesses                   0                       # Number of integer alu accesses
system.cpu03.num_int_insts                          0                       # number of integer instructions
system.cpu03.num_int_register_reads                 0                       # number of times the integer registers were read
system.cpu03.num_int_register_writes                0                       # number of times the integer registers were written
system.cpu03.num_load_insts                         0                       # Number of load instructions
system.cpu03.num_mem_refs                           0                       # number of memory refs
system.cpu03.num_store_insts                        0                       # Number of store instructions
system.cpu03.num_vec_alu_accesses                   0                       # Number of vector alu accesses
system.cpu03.num_vec_insts                          0                       # number of vector instructions
system.cpu03.num_vec_register_reads                 0                       # number of times the vector registers were read
system.cpu03.num_vec_register_writes                0                       # number of times the vector registers were written
system.cpu03.op_class::No_OpClass                   0                       # Class of executed instruction
system.cpu03.op_class::IntAlu                       0                       # Class of executed instruction
system.cpu03.op_class::IntMult                      0                       # Class of executed instruction
system.cpu03.op_class::IntDiv                       0                       # Class of executed instruction
system.cpu03.op_class::FloatAdd                     0                       # Class of executed instruction
system.cpu03.op_class::FloatCmp                     0                       # Class of executed instruction
system.cpu03.op_class::FloatCvt                     0                       # Class of executed instruction
system.cpu03.op_class::FloatMult                    0                       # Class of executed instruction
system.cpu03.op_class::FloatMultAcc                 0                       # Class of executed instruction
system.cpu03.op_class::FloatDiv                     0                       # Class of executed instruction
system.cpu03.op_class::FloatMisc                    0                       # Class of executed instruction
system.cpu03.op_class::FloatSqrt                    0                       # Class of executed instruction
system.cpu03.op_class::SimdAdd                      0                       # Class of executed instruction
system.cpu03.op_class::SimdAddAcc                   0                       # Class of executed instruction
system.cpu03.op_class::SimdAlu                      0                       # Class of executed instruction
system.cpu03.op_class::SimdCmp                      0                       # Class of executed instruction
system.cpu03.op_class::SimdCvt                      0                       # Class of executed instruction
system.cpu03.op_class::SimdMisc                     0                       # Class of executed instruction
system.cpu03.op_class::SimdMult                     0                       # Class of executed instruction
system.cpu03.op_class::SimdMultAcc                  0                       # Class of executed instruction
system.cpu03.op_class::SimdShift                    0                       # Class of executed instruction
system.cpu03.op_class::SimdShiftAcc                 0                       # Class of executed instruction
system.cpu03.op_class::SimdSqrt                     0                       # Class of executed instruction
system.cpu03.op_class::SimdFloatAdd                 0                       # Class of executed instruction
system.cpu03.op_class::SimdFloatAlu                 0                       # Class of executed instruction
system.cpu03.op_class::SimdFloatCmp                 0                       # Class of executed instruction
system.cpu03.op_class::SimdFloatCvt                 0                       # Class of executed instruction
system.cpu03.op_class::SimdFloatDiv                 0                       # Class of executed instruction
system.cpu03.op_class::SimdFloatMisc                0                       # Class of executed instruction
system.cpu03.op_class::SimdFloatMult                0                       # Class of executed instruction
system.cpu03.op_class::SimdFloatMultAcc             0                       # Class of executed instruction
system.cpu03.op_class::SimdFloatSqrt                0                       # Class of executed instruction
system.cpu03.op_class::SimdAes                      0                       # Class of executed instruction
system.cpu03.op_class::SimdAesMix                   0                       # Class of executed instruction
system.cpu03.op_class::SimdSha1Hash                 0                       # Class of executed instruction
system.cpu03.op_class::SimdSha1Hash2                0                       # Class of executed instruction
system.cpu03.op_class::SimdSha256Hash               0                       # Class of executed instruction
system.cpu03.op_class::SimdSha256Hash2              0                       # Class of executed instruction
system.cpu03.op_class::SimdShaSigma2                0                       # Class of executed instruction
system.cpu03.op_class::SimdShaSigma3                0                       # Class of executed instruction
system.cpu03.op_class::MemRead                      0                       # Class of executed instruction
system.cpu03.op_class::MemWrite                     0                       # Class of executed instruction
system.cpu03.op_class::FloatMemRead                 0                       # Class of executed instruction
system.cpu03.op_class::FloatMemWrite                0                       # Class of executed instruction
system.cpu03.op_class::IprAccess                    0                       # Class of executed instruction
system.cpu03.op_class::InstPrefetch                 0                       # Class of executed instruction
system.cpu03.op_class::total                        0                       # Class of executed instruction
system.cpu03.pwrStateResidencyTicks::ON    5000000000                       # Cumulative time (in ticks) in various power states
system.cpu04.apic_clk_domain.clock              26720                       # Clock period in ticks
system.cpu04.committedInsts                         0                       # Number of instructions committed
system.cpu04.committedOps                           0                       # Number of ops (including micro ops) committed
system.cpu04.dtb.pwrStateResidencyTicks::UNDEFINED   5000000000                       # Cumulative time (in ticks) in various power states
system.cpu04.dtb.rdAccesses                         0                       # TLB accesses on read requests
system.cpu04.dtb.rdMisses                           0                       # TLB misses on read requests
system.cpu04.dtb.walker.pwrStateResidencyTicks::UNDEFINED   5000000000                       # Cumulative time (in ticks) in various power states
system.cpu04.dtb.wrAccesses                         0                       # TLB accesses on write requests
system.cpu04.dtb.wrMisses                           0                       # TLB misses on write requests
system.cpu04.idle_fraction                          1                       # Percentage of idle cycles
system.cpu04.interrupts.pwrStateResidencyTicks::UNDEFINED   5000000000                       # Cumulative time (in ticks) in various power states
system.cpu04.itb.pwrStateResidencyTicks::UNDEFINED   5000000000                       # Cumulative time (in ticks) in various power states
system.cpu04.itb.rdAccesses                         0                       # TLB accesses on read requests
system.cpu04.itb.rdMisses                           0                       # TLB misses on read requests
system.cpu04.itb.walker.pwrStateResidencyTicks::UNDEFINED   5000000000                       # Cumulative time (in ticks) in various power states
system.cpu04.itb.wrAccesses                         0                       # TLB accesses on write requests
system.cpu04.itb.wrMisses                           0                       # TLB misses on write requests
system.cpu04.not_idle_fraction                      0                       # Percentage of non-idle cycles
system.cpu04.numCycles                              0                       # number of cpu cycles simulated
system.cpu04.numWorkItemsCompleted                  0                       # number of work items this cpu completed
system.cpu04.numWorkItemsStarted                    0                       # number of work items this cpu started
system.cpu04.num_busy_cycles                        0                       # Number of busy cycles
system.cpu04.num_conditional_control_insts            0                       # number of instructions that are conditional controls
system.cpu04.num_fp_alu_accesses                    0                       # Number of float alu accesses
system.cpu04.num_fp_insts                           0                       # number of float instructions
system.cpu04.num_fp_register_reads                  0                       # number of times the floating registers were read
system.cpu04.num_fp_register_writes                 0                       # number of times the floating registers were written
system.cpu04.num_func_calls                         0                       # number of times a function call or return occured
system.cpu04.num_idle_cycles                        0                       # Number of idle cycles
system.cpu04.num_int_alu_accesses                   0                       # Number of integer alu accesses
system.cpu04.num_int_insts                          0                       # number of integer instructions
system.cpu04.num_int_register_reads                 0                       # number of times the integer registers were read
system.cpu04.num_int_register_writes                0                       # number of times the integer registers were written
system.cpu04.num_load_insts                         0                       # Number of load instructions
system.cpu04.num_mem_refs                           0                       # number of memory refs
system.cpu04.num_store_insts                        0                       # Number of store instructions
system.cpu04.num_vec_alu_accesses                   0                       # Number of vector alu accesses
system.cpu04.num_vec_insts                          0                       # number of vector instructions
system.cpu04.num_vec_register_reads                 0                       # number of times the vector registers were read
system.cpu04.num_vec_register_writes                0                       # number of times the vector registers were written
system.cpu04.op_class::No_OpClass                   0                       # Class of executed instruction
system.cpu04.op_class::IntAlu                       0                       # Class of executed instruction
system.cpu04.op_class::IntMult                      0                       # Class of executed instruction
system.cpu04.op_class::IntDiv                       0                       # Class of executed instruction
system.cpu04.op_class::FloatAdd                     0                       # Class of executed instruction
system.cpu04.op_class::FloatCmp                     0                       # Class of executed instruction
system.cpu04.op_class::FloatCvt                     0                       # Class of executed instruction
system.cpu04.op_class::FloatMult                    0                       # Class of executed instruction
system.cpu04.op_class::FloatMultAcc                 0                       # Class of executed instruction
system.cpu04.op_class::FloatDiv                     0                       # Class of executed instruction
system.cpu04.op_class::FloatMisc                    0                       # Class of executed instruction
system.cpu04.op_class::FloatSqrt                    0                       # Class of executed instruction
system.cpu04.op_class::SimdAdd                      0                       # Class of executed instruction
system.cpu04.op_class::SimdAddAcc                   0                       # Class of executed instruction
system.cpu04.op_class::SimdAlu                      0                       # Class of executed instruction
system.cpu04.op_class::SimdCmp                      0                       # Class of executed instruction
system.cpu04.op_class::SimdCvt                      0                       # Class of executed instruction
system.cpu04.op_class::SimdMisc                     0                       # Class of executed instruction
system.cpu04.op_class::SimdMult                     0                       # Class of executed instruction
system.cpu04.op_class::SimdMultAcc                  0                       # Class of executed instruction
system.cpu04.op_class::SimdShift                    0                       # Class of executed instruction
system.cpu04.op_class::SimdShiftAcc                 0                       # Class of executed instruction
system.cpu04.op_class::SimdSqrt                     0                       # Class of executed instruction
system.cpu04.op_class::SimdFloatAdd                 0                       # Class of executed instruction
system.cpu04.op_class::SimdFloatAlu                 0                       # Class of executed instruction
system.cpu04.op_class::SimdFloatCmp                 0                       # Class of executed instruction
system.cpu04.op_class::SimdFloatCvt                 0                       # Class of executed instruction
system.cpu04.op_class::SimdFloatDiv                 0                       # Class of executed instruction
system.cpu04.op_class::SimdFloatMisc                0                       # Class of executed instruction
system.cpu04.op_class::SimdFloatMult                0                       # Class of executed instruction
system.cpu04.op_class::SimdFloatMultAcc             0                       # Class of executed instruction
system.cpu04.op_class::SimdFloatSqrt                0                       # Class of executed instruction
system.cpu04.op_class::SimdAes                      0                       # Class of executed instruction
system.cpu04.op_class::SimdAesMix                   0                       # Class of executed instruction
system.cpu04.op_class::SimdSha1Hash                 0                       # Class of executed instruction
system.cpu04.op_class::SimdSha1Hash2                0                       # Class of executed instruction
system.cpu04.op_class::SimdSha256Hash               0                       # Class of executed instruction
system.cpu04.op_class::SimdSha256Hash2              0                       # Class of executed instruction
system.cpu04.op_class::SimdShaSigma2                0                       # Class of executed instruction
system.cpu04.op_class::SimdShaSigma3                0                       # Class of executed instruction
system.cpu04.op_class::MemRead                      0                       # Class of executed instruction
system.cpu04.op_class::MemWrite                     0                       # Class of executed instruction
system.cpu04.op_class::FloatMemRead                 0                       # Class of executed instruction
system.cpu04.op_class::FloatMemWrite                0                       # Class of executed instruction
system.cpu04.op_class::IprAccess                    0                       # Class of executed instruction
system.cpu04.op_class::InstPrefetch                 0                       # Class of executed instruction
system.cpu04.op_class::total                        0                       # Class of executed instruction
system.cpu04.pwrStateResidencyTicks::ON    5000000000                       # Cumulative time (in ticks) in various power states
system.cpu05.apic_clk_domain.clock              26720                       # Clock period in ticks
system.cpu05.committedInsts                         0                       # Number of instructions committed
system.cpu05.committedOps                           0                       # Number of ops (including micro ops) committed
system.cpu05.dtb.pwrStateResidencyTicks::UNDEFINED   5000000000                       # Cumulative time (in ticks) in various power states
system.cpu05.dtb.rdAccesses                         0                       # TLB accesses on read requests
system.cpu05.dtb.rdMisses                           0                       # TLB misses on read requests
system.cpu05.dtb.walker.pwrStateResidencyTicks::UNDEFINED   5000000000                       # Cumulative time (in ticks) in various power states
system.cpu05.dtb.wrAccesses                         0                       # TLB accesses on write requests
system.cpu05.dtb.wrMisses                           0                       # TLB misses on write requests
system.cpu05.idle_fraction                          1                       # Percentage of idle cycles
system.cpu05.interrupts.pwrStateResidencyTicks::UNDEFINED   5000000000                       # Cumulative time (in ticks) in various power states
system.cpu05.itb.pwrStateResidencyTicks::UNDEFINED   5000000000                       # Cumulative time (in ticks) in various power states
system.cpu05.itb.rdAccesses                         0                       # TLB accesses on read requests
system.cpu05.itb.rdMisses                           0                       # TLB misses on read requests
system.cpu05.itb.walker.pwrStateResidencyTicks::UNDEFINED   5000000000                       # Cumulative time (in ticks) in various power states
system.cpu05.itb.wrAccesses                         0                       # TLB accesses on write requests
system.cpu05.itb.wrMisses                           0                       # TLB misses on write requests
system.cpu05.not_idle_fraction                      0                       # Percentage of non-idle cycles
system.cpu05.numCycles                              0                       # number of cpu cycles simulated
system.cpu05.numWorkItemsCompleted                  0                       # number of work items this cpu completed
system.cpu05.numWorkItemsStarted                    0                       # number of work items this cpu started
system.cpu05.num_busy_cycles                        0                       # Number of busy cycles
system.cpu05.num_conditional_control_insts            0                       # number of instructions that are conditional controls
system.cpu05.num_fp_alu_accesses                    0                       # Number of float alu accesses
system.cpu05.num_fp_insts                           0                       # number of float instructions
system.cpu05.num_fp_register_reads                  0                       # number of times the floating registers were read
system.cpu05.num_fp_register_writes                 0                       # number of times the floating registers were written
system.cpu05.num_func_calls                         0                       # number of times a function call or return occured
system.cpu05.num_idle_cycles                        0                       # Number of idle cycles
system.cpu05.num_int_alu_accesses                   0                       # Number of integer alu accesses
system.cpu05.num_int_insts                          0                       # number of integer instructions
system.cpu05.num_int_register_reads                 0                       # number of times the integer registers were read
system.cpu05.num_int_register_writes                0                       # number of times the integer registers were written
system.cpu05.num_load_insts                         0                       # Number of load instructions
system.cpu05.num_mem_refs                           0                       # number of memory refs
system.cpu05.num_store_insts                        0                       # Number of store instructions
system.cpu05.num_vec_alu_accesses                   0                       # Number of vector alu accesses
system.cpu05.num_vec_insts                          0                       # number of vector instructions
system.cpu05.num_vec_register_reads                 0                       # number of times the vector registers were read
system.cpu05.num_vec_register_writes                0                       # number of times the vector registers were written
system.cpu05.op_class::No_OpClass                   0                       # Class of executed instruction
system.cpu05.op_class::IntAlu                       0                       # Class of executed instruction
system.cpu05.op_class::IntMult                      0                       # Class of executed instruction
system.cpu05.op_class::IntDiv                       0                       # Class of executed instruction
system.cpu05.op_class::FloatAdd                     0                       # Class of executed instruction
system.cpu05.op_class::FloatCmp                     0                       # Class of executed instruction
system.cpu05.op_class::FloatCvt                     0                       # Class of executed instruction
system.cpu05.op_class::FloatMult                    0                       # Class of executed instruction
system.cpu05.op_class::FloatMultAcc                 0                       # Class of executed instruction
system.cpu05.op_class::FloatDiv                     0                       # Class of executed instruction
system.cpu05.op_class::FloatMisc                    0                       # Class of executed instruction
system.cpu05.op_class::FloatSqrt                    0                       # Class of executed instruction
system.cpu05.op_class::SimdAdd                      0                       # Class of executed instruction
system.cpu05.op_class::SimdAddAcc                   0                       # Class of executed instruction
system.cpu05.op_class::SimdAlu                      0                       # Class of executed instruction
system.cpu05.op_class::SimdCmp                      0                       # Class of executed instruction
system.cpu05.op_class::SimdCvt                      0                       # Class of executed instruction
system.cpu05.op_class::SimdMisc                     0                       # Class of executed instruction
system.cpu05.op_class::SimdMult                     0                       # Class of executed instruction
system.cpu05.op_class::SimdMultAcc                  0                       # Class of executed instruction
system.cpu05.op_class::SimdShift                    0                       # Class of executed instruction
system.cpu05.op_class::SimdShiftAcc                 0                       # Class of executed instruction
system.cpu05.op_class::SimdSqrt                     0                       # Class of executed instruction
system.cpu05.op_class::SimdFloatAdd                 0                       # Class of executed instruction
system.cpu05.op_class::SimdFloatAlu                 0                       # Class of executed instruction
system.cpu05.op_class::SimdFloatCmp                 0                       # Class of executed instruction
system.cpu05.op_class::SimdFloatCvt                 0                       # Class of executed instruction
system.cpu05.op_class::SimdFloatDiv                 0                       # Class of executed instruction
system.cpu05.op_class::SimdFloatMisc                0                       # Class of executed instruction
system.cpu05.op_class::SimdFloatMult                0                       # Class of executed instruction
system.cpu05.op_class::SimdFloatMultAcc             0                       # Class of executed instruction
system.cpu05.op_class::SimdFloatSqrt                0                       # Class of executed instruction
system.cpu05.op_class::SimdAes                      0                       # Class of executed instruction
system.cpu05.op_class::SimdAesMix                   0                       # Class of executed instruction
system.cpu05.op_class::SimdSha1Hash                 0                       # Class of executed instruction
system.cpu05.op_class::SimdSha1Hash2                0                       # Class of executed instruction
system.cpu05.op_class::SimdSha256Hash               0                       # Class of executed instruction
system.cpu05.op_class::SimdSha256Hash2              0                       # Class of executed instruction
system.cpu05.op_class::SimdShaSigma2                0                       # Class of executed instruction
system.cpu05.op_class::SimdShaSigma3                0                       # Class of executed instruction
system.cpu05.op_class::MemRead                      0                       # Class of executed instruction
system.cpu05.op_class::MemWrite                     0                       # Class of executed instruction
system.cpu05.op_class::FloatMemRead                 0                       # Class of executed instruction
system.cpu05.op_class::FloatMemWrite                0                       # Class of executed instruction
system.cpu05.op_class::IprAccess                    0                       # Class of executed instruction
system.cpu05.op_class::InstPrefetch                 0                       # Class of executed instruction
system.cpu05.op_class::total                        0                       # Class of executed instruction
system.cpu05.pwrStateResidencyTicks::ON    5000000000                       # Cumulative time (in ticks) in various power states
system.cpu06.apic_clk_domain.clock              26720                       # Clock period in ticks
system.cpu06.committedInsts                         0                       # Number of instructions committed
system.cpu06.committedOps                           0                       # Number of ops (including micro ops) committed
system.cpu06.dtb.pwrStateResidencyTicks::UNDEFINED   5000000000                       # Cumulative time (in ticks) in various power states
system.cpu06.dtb.rdAccesses                         0                       # TLB accesses on read requests
system.cpu06.dtb.rdMisses                           0                       # TLB misses on read requests
system.cpu06.dtb.walker.pwrStateResidencyTicks::UNDEFINED   5000000000                       # Cumulative time (in ticks) in various power states
system.cpu06.dtb.wrAccesses                         0                       # TLB accesses on write requests
system.cpu06.dtb.wrMisses                           0                       # TLB misses on write requests
system.cpu06.idle_fraction                          1                       # Percentage of idle cycles
system.cpu06.interrupts.pwrStateResidencyTicks::UNDEFINED   5000000000                       # Cumulative time (in ticks) in various power states
system.cpu06.itb.pwrStateResidencyTicks::UNDEFINED   5000000000                       # Cumulative time (in ticks) in various power states
system.cpu06.itb.rdAccesses                         0                       # TLB accesses on read requests
system.cpu06.itb.rdMisses                           0                       # TLB misses on read requests
system.cpu06.itb.walker.pwrStateResidencyTicks::UNDEFINED   5000000000                       # Cumulative time (in ticks) in various power states
system.cpu06.itb.wrAccesses                         0                       # TLB accesses on write requests
system.cpu06.itb.wrMisses                           0                       # TLB misses on write requests
system.cpu06.not_idle_fraction                      0                       # Percentage of non-idle cycles
system.cpu06.numCycles                              0                       # number of cpu cycles simulated
system.cpu06.numWorkItemsCompleted                  0                       # number of work items this cpu completed
system.cpu06.numWorkItemsStarted                    0                       # number of work items this cpu started
system.cpu06.num_busy_cycles                        0                       # Number of busy cycles
system.cpu06.num_conditional_control_insts            0                       # number of instructions that are conditional controls
system.cpu06.num_fp_alu_accesses                    0                       # Number of float alu accesses
system.cpu06.num_fp_insts                           0                       # number of float instructions
system.cpu06.num_fp_register_reads                  0                       # number of times the floating registers were read
system.cpu06.num_fp_register_writes                 0                       # number of times the floating registers were written
system.cpu06.num_func_calls                         0                       # number of times a function call or return occured
system.cpu06.num_idle_cycles                        0                       # Number of idle cycles
system.cpu06.num_int_alu_accesses                   0                       # Number of integer alu accesses
system.cpu06.num_int_insts                          0                       # number of integer instructions
system.cpu06.num_int_register_reads                 0                       # number of times the integer registers were read
system.cpu06.num_int_register_writes                0                       # number of times the integer registers were written
system.cpu06.num_load_insts                         0                       # Number of load instructions
system.cpu06.num_mem_refs                           0                       # number of memory refs
system.cpu06.num_store_insts                        0                       # Number of store instructions
system.cpu06.num_vec_alu_accesses                   0                       # Number of vector alu accesses
system.cpu06.num_vec_insts                          0                       # number of vector instructions
system.cpu06.num_vec_register_reads                 0                       # number of times the vector registers were read
system.cpu06.num_vec_register_writes                0                       # number of times the vector registers were written
system.cpu06.op_class::No_OpClass                   0                       # Class of executed instruction
system.cpu06.op_class::IntAlu                       0                       # Class of executed instruction
system.cpu06.op_class::IntMult                      0                       # Class of executed instruction
system.cpu06.op_class::IntDiv                       0                       # Class of executed instruction
system.cpu06.op_class::FloatAdd                     0                       # Class of executed instruction
system.cpu06.op_class::FloatCmp                     0                       # Class of executed instruction
system.cpu06.op_class::FloatCvt                     0                       # Class of executed instruction
system.cpu06.op_class::FloatMult                    0                       # Class of executed instruction
system.cpu06.op_class::FloatMultAcc                 0                       # Class of executed instruction
system.cpu06.op_class::FloatDiv                     0                       # Class of executed instruction
system.cpu06.op_class::FloatMisc                    0                       # Class of executed instruction
system.cpu06.op_class::FloatSqrt                    0                       # Class of executed instruction
system.cpu06.op_class::SimdAdd                      0                       # Class of executed instruction
system.cpu06.op_class::SimdAddAcc                   0                       # Class of executed instruction
system.cpu06.op_class::SimdAlu                      0                       # Class of executed instruction
system.cpu06.op_class::SimdCmp                      0                       # Class of executed instruction
system.cpu06.op_class::SimdCvt                      0                       # Class of executed instruction
system.cpu06.op_class::SimdMisc                     0                       # Class of executed instruction
system.cpu06.op_class::SimdMult                     0                       # Class of executed instruction
system.cpu06.op_class::SimdMultAcc                  0                       # Class of executed instruction
system.cpu06.op_class::SimdShift                    0                       # Class of executed instruction
system.cpu06.op_class::SimdShiftAcc                 0                       # Class of executed instruction
system.cpu06.op_class::SimdSqrt                     0                       # Class of executed instruction
system.cpu06.op_class::SimdFloatAdd                 0                       # Class of executed instruction
system.cpu06.op_class::SimdFloatAlu                 0                       # Class of executed instruction
system.cpu06.op_class::SimdFloatCmp                 0                       # Class of executed instruction
system.cpu06.op_class::SimdFloatCvt                 0                       # Class of executed instruction
system.cpu06.op_class::SimdFloatDiv                 0                       # Class of executed instruction
system.cpu06.op_class::SimdFloatMisc                0                       # Class of executed instruction
system.cpu06.op_class::SimdFloatMult                0                       # Class of executed instruction
system.cpu06.op_class::SimdFloatMultAcc             0                       # Class of executed instruction
system.cpu06.op_class::SimdFloatSqrt                0                       # Class of executed instruction
system.cpu06.op_class::SimdAes                      0                       # Class of executed instruction
system.cpu06.op_class::SimdAesMix                   0                       # Class of executed instruction
system.cpu06.op_class::SimdSha1Hash                 0                       # Class of executed instruction
system.cpu06.op_class::SimdSha1Hash2                0                       # Class of executed instruction
system.cpu06.op_class::SimdSha256Hash               0                       # Class of executed instruction
system.cpu06.op_class::SimdSha256Hash2              0                       # Class of executed instruction
system.cpu06.op_class::SimdShaSigma2                0                       # Class of executed instruction
system.cpu06.op_class::SimdShaSigma3                0                       # Class of executed instruction
system.cpu06.op_class::MemRead                      0                       # Class of executed instruction
system.cpu06.op_class::MemWrite                     0                       # Class of executed instruction
system.cpu06.op_class::FloatMemRead                 0                       # Class of executed instruction
system.cpu06.op_class::FloatMemWrite                0                       # Class of executed instruction
system.cpu06.op_class::IprAccess                    0                       # Class of executed instruction
system.cpu06.op_class::InstPrefetch                 0                       # Class of executed instruction
system.cpu06.op_class::total                        0                       # Class of executed instruction
system.cpu06.pwrStateResidencyTicks::ON    5000000000                       # Cumulative time (in ticks) in various power states
system.cpu07.apic_clk_domain.clock              26720                       # Clock period in ticks
system.cpu07.committedInsts                         0                       # Number of instructions committed
system.cpu07.committedOps                           0                       # Number of ops (including micro ops) committed
system.cpu07.dtb.pwrStateResidencyTicks::UNDEFINED   5000000000                       # Cumulative time (in ticks) in various power states
system.cpu07.dtb.rdAccesses                         0                       # TLB accesses on read requests
system.cpu07.dtb.rdMisses                           0                       # TLB misses on read requests
system.cpu07.dtb.walker.pwrStateResidencyTicks::UNDEFINED   5000000000                       # Cumulative time (in ticks) in various power states
system.cpu07.dtb.wrAccesses                         0                       # TLB accesses on write requests
system.cpu07.dtb.wrMisses                           0                       # TLB misses on write requests
system.cpu07.idle_fraction                          1                       # Percentage of idle cycles
system.cpu07.interrupts.pwrStateResidencyTicks::UNDEFINED   5000000000                       # Cumulative time (in ticks) in various power states
system.cpu07.itb.pwrStateResidencyTicks::UNDEFINED   5000000000                       # Cumulative time (in ticks) in various power states
system.cpu07.itb.rdAccesses                         0                       # TLB accesses on read requests
system.cpu07.itb.rdMisses                           0                       # TLB misses on read requests
system.cpu07.itb.walker.pwrStateResidencyTicks::UNDEFINED   5000000000                       # Cumulative time (in ticks) in various power states
system.cpu07.itb.wrAccesses                         0                       # TLB accesses on write requests
system.cpu07.itb.wrMisses                           0                       # TLB misses on write requests
system.cpu07.not_idle_fraction                      0                       # Percentage of non-idle cycles
system.cpu07.numCycles                              0                       # number of cpu cycles simulated
system.cpu07.numWorkItemsCompleted                  0                       # number of work items this cpu completed
system.cpu07.numWorkItemsStarted                    0                       # number of work items this cpu started
system.cpu07.num_busy_cycles                        0                       # Number of busy cycles
system.cpu07.num_conditional_control_insts            0                       # number of instructions that are conditional controls
system.cpu07.num_fp_alu_accesses                    0                       # Number of float alu accesses
system.cpu07.num_fp_insts                           0                       # number of float instructions
system.cpu07.num_fp_register_reads                  0                       # number of times the floating registers were read
system.cpu07.num_fp_register_writes                 0                       # number of times the floating registers were written
system.cpu07.num_func_calls                         0                       # number of times a function call or return occured
system.cpu07.num_idle_cycles                        0                       # Number of idle cycles
system.cpu07.num_int_alu_accesses                   0                       # Number of integer alu accesses
system.cpu07.num_int_insts                          0                       # number of integer instructions
system.cpu07.num_int_register_reads                 0                       # number of times the integer registers were read
system.cpu07.num_int_register_writes                0                       # number of times the integer registers were written
system.cpu07.num_load_insts                         0                       # Number of load instructions
system.cpu07.num_mem_refs                           0                       # number of memory refs
system.cpu07.num_store_insts                        0                       # Number of store instructions
system.cpu07.num_vec_alu_accesses                   0                       # Number of vector alu accesses
system.cpu07.num_vec_insts                          0                       # number of vector instructions
system.cpu07.num_vec_register_reads                 0                       # number of times the vector registers were read
system.cpu07.num_vec_register_writes                0                       # number of times the vector registers were written
system.cpu07.op_class::No_OpClass                   0                       # Class of executed instruction
system.cpu07.op_class::IntAlu                       0                       # Class of executed instruction
system.cpu07.op_class::IntMult                      0                       # Class of executed instruction
system.cpu07.op_class::IntDiv                       0                       # Class of executed instruction
system.cpu07.op_class::FloatAdd                     0                       # Class of executed instruction
system.cpu07.op_class::FloatCmp                     0                       # Class of executed instruction
system.cpu07.op_class::FloatCvt                     0                       # Class of executed instruction
system.cpu07.op_class::FloatMult                    0                       # Class of executed instruction
system.cpu07.op_class::FloatMultAcc                 0                       # Class of executed instruction
system.cpu07.op_class::FloatDiv                     0                       # Class of executed instruction
system.cpu07.op_class::FloatMisc                    0                       # Class of executed instruction
system.cpu07.op_class::FloatSqrt                    0                       # Class of executed instruction
system.cpu07.op_class::SimdAdd                      0                       # Class of executed instruction
system.cpu07.op_class::SimdAddAcc                   0                       # Class of executed instruction
system.cpu07.op_class::SimdAlu                      0                       # Class of executed instruction
system.cpu07.op_class::SimdCmp                      0                       # Class of executed instruction
system.cpu07.op_class::SimdCvt                      0                       # Class of executed instruction
system.cpu07.op_class::SimdMisc                     0                       # Class of executed instruction
system.cpu07.op_class::SimdMult                     0                       # Class of executed instruction
system.cpu07.op_class::SimdMultAcc                  0                       # Class of executed instruction
system.cpu07.op_class::SimdShift                    0                       # Class of executed instruction
system.cpu07.op_class::SimdShiftAcc                 0                       # Class of executed instruction
system.cpu07.op_class::SimdSqrt                     0                       # Class of executed instruction
system.cpu07.op_class::SimdFloatAdd                 0                       # Class of executed instruction
system.cpu07.op_class::SimdFloatAlu                 0                       # Class of executed instruction
system.cpu07.op_class::SimdFloatCmp                 0                       # Class of executed instruction
system.cpu07.op_class::SimdFloatCvt                 0                       # Class of executed instruction
system.cpu07.op_class::SimdFloatDiv                 0                       # Class of executed instruction
system.cpu07.op_class::SimdFloatMisc                0                       # Class of executed instruction
system.cpu07.op_class::SimdFloatMult                0                       # Class of executed instruction
system.cpu07.op_class::SimdFloatMultAcc             0                       # Class of executed instruction
system.cpu07.op_class::SimdFloatSqrt                0                       # Class of executed instruction
system.cpu07.op_class::SimdAes                      0                       # Class of executed instruction
system.cpu07.op_class::SimdAesMix                   0                       # Class of executed instruction
system.cpu07.op_class::SimdSha1Hash                 0                       # Class of executed instruction
system.cpu07.op_class::SimdSha1Hash2                0                       # Class of executed instruction
system.cpu07.op_class::SimdSha256Hash               0                       # Class of executed instruction
system.cpu07.op_class::SimdSha256Hash2              0                       # Class of executed instruction
system.cpu07.op_class::SimdShaSigma2                0                       # Class of executed instruction
system.cpu07.op_class::SimdShaSigma3                0                       # Class of executed instruction
system.cpu07.op_class::MemRead                      0                       # Class of executed instruction
[...]
system.ruby.network.routers10.percent_links_utilized            0                      
system.ruby.network.routers10.pwrStateResidencyTicks::UNDEFINED   5000000000                       # Cumulative time (in ticks) in various power states
system.ruby.network.routers10.throttle0.link_utilization            0                      
system.ruby.network.routers10.throttle1.link_utilization            0                      
system.ruby.network.routers11.percent_links_utilized            0                      
system.ruby.network.routers11.pwrStateResidencyTicks::UNDEFINED   5000000000                       # Cumulative time (in ticks) in various power states
system.ruby.network.routers11.throttle0.link_utilization            0                      
system.ruby.network.routers11.throttle1.link_utilization            0                      
system.ruby.network.routers12.percent_links_utilized            0                      
system.ruby.network.routers12.pwrStateResidencyTicks::UNDEFINED   5000000000                       # Cumulative time (in ticks) in various power states
system.ruby.network.routers12.throttle0.link_utilization            0                      
system.ruby.network.routers12.throttle1.link_utilization            0                      
system.ruby.network.routers13.percent_links_utilized            0                      
system.ruby.network.routers13.pwrStateResidencyTicks::UNDEFINED   5000000000                       # Cumulative time (in ticks) in various power states
system.ruby.network.routers13.throttle0.link_utilization            0                      
system.ruby.network.routers13.throttle1.link_utilization            0                      
system.ruby.network.routers14.percent_links_utilized            0                      
system.ruby.network.routers14.pwrStateResidencyTicks::UNDEFINED   5000000000                       # Cumulative time (in ticks) in various power states
system.ruby.network.routers14.throttle0.link_utilization            0                      
system.ruby.network.routers14.throttle1.link_utilization            0                      
system.ruby.network.routers15.percent_links_utilized            0                      
system.ruby.network.routers15.pwrStateResidencyTicks::UNDEFINED   5000000000                       # Cumulative time (in ticks) in various power states
system.ruby.network.routers15.throttle0.link_utilization            0                      
system.ruby.network.routers15.throttle1.link_utilization            0                      
system.ruby.network.routers16.msg_bytes.Control::0       340320                      
system.ruby.network.routers16.msg_bytes.Request_Control::2         2200                      
system.ruby.network.routers16.msg_bytes.Response_Control::1       270632                      
system.ruby.network.routers16.msg_bytes.Response_Control::2       158856                      
system.ruby.network.routers16.msg_bytes.Response_Data::1      2267320                      
system.ruby.network.routers16.msg_bytes.Writeback_Data::0       755200                      
system.ruby.network.routers16.msg_bytes.Writeback_Data::1           40                      
system.ruby.network.routers16.msg_count.Control::0        42540                      
system.ruby.network.routers16.msg_count.Request_Control::2          275                      
system.ruby.network.routers16.msg_count.Response_Control::1        33829                      
system.ruby.network.routers16.msg_count.Response_Control::2        19857                      
system.ruby.network.routers16.msg_count.Response_Data::1        56683                      
system.ruby.network.routers16.msg_count.Writeback_Data::0        18880                      
system.ruby.network.routers16.msg_count.Writeback_Data::1            1                      
system.ruby.network.routers16.percent_links_utilized     1.185800                      
system.ruby.network.routers16.port_buffers00.avg_buf_msgs     0.004034                       # Average number of messages in buffer
system.ruby.network.routers16.port_buffers00.avg_stall_time  6926.773307                       # Average number of cycles messages are stalled in this MB
system.ruby.network.routers16.port_buffers01.avg_buf_msgs     0.003576                       # Average number of messages in buffer
system.ruby.network.routers16.port_buffers01.avg_stall_time  3001.519396                       # Average number of cycles messages are stalled in this MB
system.ruby.network.routers16.port_buffers02.avg_buf_msgs     0.001986                       # Average number of messages in buffer
system.ruby.network.routers16.port_buffers02.avg_stall_time  4417.522223                       # Average number of cycles messages are stalled in this MB
system.ruby.network.routers16.port_buffers03.avg_buf_msgs     0.004904                       # Average number of messages in buffer
system.ruby.network.routers16.port_buffers03.avg_stall_time  2076.182850                       # Average number of cycles messages are stalled in this MB
system.ruby.network.routers16.port_buffers04.avg_buf_msgs     0.005475                       # Average number of messages in buffer
system.ruby.network.routers16.port_buffers04.avg_stall_time  1113.158450                       # Average number of cycles messages are stalled in this MB
system.ruby.network.routers16.port_buffers05.avg_buf_msgs     0.000027                       # Average number of messages in buffer
system.ruby.network.routers16.port_buffers05.avg_stall_time   791.996800                       # Average number of cycles messages are stalled in this MB
system.ruby.network.routers16.pwrStateResidencyTicks::UNDEFINED   5000000000                       # Cumulative time (in ticks) in various power states
system.ruby.network.routers16.throttle0.link_utilization     1.279045                      
system.ruby.network.routers16.throttle0.msg_bytes.Control::0       171672                      
system.ruby.network.routers16.throttle0.msg_bytes.Response_Control::1       117464                      
system.ruby.network.routers16.throttle0.msg_bytes.Response_Control::2       158856                      
system.ruby.network.routers16.throttle0.msg_bytes.Response_Data::1       843240                      
system.ruby.network.routers16.throttle0.msg_bytes.Writeback_Data::0       755200                      
system.ruby.network.routers16.throttle0.msg_bytes.Writeback_Data::1           40                      
system.ruby.network.routers16.throttle0.msg_count.Control::0        21459                      
system.ruby.network.routers16.throttle0.msg_count.Response_Control::1        14683                      
system.ruby.network.routers16.throttle0.msg_count.Response_Control::2        19857                      
system.ruby.network.routers16.throttle0.msg_count.Response_Data::1        21081                      
system.ruby.network.routers16.throttle0.msg_count.Writeback_Data::0        18880                      
system.ruby.network.routers16.throttle0.msg_count.Writeback_Data::1            1                      
system.ruby.network.routers16.throttle1.link_utilization     1.092555                      
system.ruby.network.routers16.throttle1.msg_bytes.Control::0       168648                      
system.ruby.network.routers16.throttle1.msg_bytes.Request_Control::2         2200                      
system.ruby.network.routers16.throttle1.msg_bytes.Response_Control::1       153168                      
system.ruby.network.routers16.throttle1.msg_bytes.Response_Data::1      1424080                      
system.ruby.network.routers16.throttle1.msg_count.Control::0        21081                      
system.ruby.network.routers16.throttle1.msg_count.Request_Control::2          275                      
system.ruby.network.routers16.throttle1.msg_count.Response_Control::1        19146                      
system.ruby.network.routers16.throttle1.msg_count.Response_Data::1        35602                      
system.ruby.network.routers17.msg_bytes.Control::0       168648                      
system.ruby.network.routers17.msg_bytes.Response_Control::1       117128                      
system.ruby.network.routers17.msg_bytes.Response_Data::1      1410320                      
system.ruby.network.routers17.msg_count.Control::0        21081                      
system.ruby.network.routers17.msg_count.Response_Control::1        14641                      
system.ruby.network.routers17.msg_count.Response_Data::1        35258                      
system.ruby.network.routers17.percent_links_utilized     0.530030                      
system.ruby.network.routers17.port_buffers00.avg_buf_msgs     0.002108                       # Average number of messages in buffer
system.ruby.network.routers17.port_buffers00.avg_stall_time  4082.972050                       # Average number of cycles messages are stalled in this MB
system.ruby.network.routers17.port_buffers01.avg_buf_msgs     0.001441                       # Average number of messages in buffer
system.ruby.network.routers17.port_buffers01.avg_stall_time  2771.979350                       # Average number of cycles messages are stalled in this MB
system.ruby.network.routers17.port_buffers03.avg_buf_msgs     0.003549                       # Average number of messages in buffer
system.ruby.network.routers17.port_buffers03.avg_stall_time   999.986400                       # Average number of cycles messages are stalled in this MB
system.ruby.network.routers17.pwrStateResidencyTicks::UNDEFINED   5000000000                       # Cumulative time (in ticks) in various power states
system.ruby.network.routers17.throttle0.link_utilization     0.460990                      
system.ruby.network.routers17.throttle0.msg_bytes.Control::0       168648                      
system.ruby.network.routers17.throttle0.msg_bytes.Response_Control::1         1856                      
system.ruby.network.routers17.throttle0.msg_bytes.Response_Data::1       567080                      
system.ruby.network.routers17.throttle0.msg_count.Control::0        21081                      
system.ruby.network.routers17.throttle0.msg_count.Response_Control::1          232                      
system.ruby.network.routers17.throttle0.msg_count.Response_Data::1        14177                      
system.ruby.network.routers17.throttle1.link_utilization     0.599070                      
system.ruby.network.routers17.throttle1.msg_bytes.Response_Control::1       115272                      
system.ruby.network.routers17.throttle1.msg_bytes.Response_Data::1       843240                      
system.ruby.network.routers17.throttle1.msg_count.Response_Control::1        14409                      
system.ruby.network.routers17.throttle1.msg_count.Response_Data::1        21081                      
system.ruby.network.routers18.msg_bytes.Control::0       340320                      
system.ruby.network.routers18.msg_bytes.Request_Control::2         2200                      
system.ruby.network.routers18.msg_bytes.Response_Control::1       270632                      
system.ruby.network.routers18.msg_bytes.Response_Control::2       158856                      
system.ruby.network.routers18.msg_bytes.Response_Data::1      2267280                      
system.ruby.network.routers18.msg_bytes.Writeback_Data::0       755200                      
system.ruby.network.routers18.msg_bytes.Writeback_Data::1           40                      
system.ruby.network.routers18.msg_count.Control::0        42540                      
system.ruby.network.routers18.msg_count.Request_Control::2          275                      
system.ruby.network.routers18.msg_count.Response_Control::1        33829                      
system.ruby.network.routers18.msg_count.Response_Control::2        19857                      
system.ruby.network.routers18.msg_count.Response_Data::1        56682                      
system.ruby.network.routers18.msg_count.Writeback_Data::0        18880                      
system.ruby.network.routers18.msg_count.Writeback_Data::1            1                      
system.ruby.network.routers18.percent_links_utilized     0.131754                      
system.ruby.network.routers18.port_buffers001.avg_buf_msgs     0.004034                       # Average number of messages in buffer
system.ruby.network.routers18.port_buffers001.avg_stall_time  2015.249450                       # Average number of cycles messages are stalled in this MB
system.ruby.network.routers18.port_buffers002.avg_buf_msgs     0.000027                       # Average number of messages in buffer
system.ruby.network.routers18.port_buffers002.avg_stall_time  1583.993200                       # Average number of cycles messages are stalled in this MB
system.ruby.network.routers18.port_buffers048.avg_buf_msgs     0.004034                       # Average number of messages in buffer
system.ruby.network.routers18.port_buffers048.avg_stall_time  5926.776091                       # Average number of cycles messages are stalled in this MB
system.ruby.network.routers18.port_buffers049.avg_buf_msgs     0.003576                       # Average number of messages in buffer
system.ruby.network.routers18.port_buffers049.avg_stall_time  2001.533796                       # Average number of cycles messages are stalled in this MB
system.ruby.network.routers18.port_buffers050.avg_buf_msgs     0.001986                       # Average number of messages in buffer
system.ruby.network.routers18.port_buffers050.avg_stall_time  3417.561205                       # Average number of cycles messages are stalled in this MB
system.ruby.network.routers18.port_buffers051.avg_buf_msgs     0.002138                       # Average number of messages in buffer
system.ruby.network.routers18.port_buffers051.avg_stall_time  3082.975150                       # Average number of cycles messages are stalled in this MB
system.ruby.network.routers18.port_buffers052.avg_buf_msgs     0.001441                       # Average number of messages in buffer
system.ruby.network.routers18.port_buffers052.avg_stall_time  1979.985750                       # Average number of cycles messages are stalled in this MB
system.ruby.network.routers18.pwrStateResidencyTicks::UNDEFINED   5000000000                       # Cumulative time (in ticks) in various power states
system.ruby.network.routers18.throttle0.link_utilization     0.631545                      
system.ruby.network.routers18.throttle0.msg_bytes.Request_Control::2         2200                      
system.ruby.network.routers18.throttle0.msg_bytes.Response_Control::1       151312                      
system.ruby.network.routers18.throttle0.msg_bytes.Response_Data::1       856960                      
system.ruby.network.routers18.throttle0.msg_count.Request_Control::2          275                      
system.ruby.network.routers18.throttle0.msg_count.Response_Control::1        18914                      
system.ruby.network.routers18.throttle0.msg_count.Response_Data::1        21424                      
system.ruby.network.routers18.throttle1.link_utilization            0                      
system.ruby.network.routers18.throttle10.link_utilization            0                      
system.ruby.network.routers18.throttle11.link_utilization            0                      
system.ruby.network.routers18.throttle12.link_utilization            0                      
system.ruby.network.routers18.throttle13.link_utilization            0                      
system.ruby.network.routers18.throttle14.link_utilization            0                      
system.ruby.network.routers18.throttle15.link_utilization            0                      
system.ruby.network.routers18.throttle16.link_utilization     1.279045                      
system.ruby.network.routers18.throttle16.msg_bytes.Control::0       171672                      
system.ruby.network.routers18.throttle16.msg_bytes.Response_Control::1       117464                      
system.ruby.network.routers18.throttle16.msg_bytes.Response_Control::2       158856                      
system.ruby.network.routers18.throttle16.msg_bytes.Response_Data::1       843240                      
system.ruby.network.routers18.throttle16.msg_bytes.Writeback_Data::0       755200                      
system.ruby.network.routers18.throttle16.msg_bytes.Writeback_Data::1           40                      
system.ruby.network.routers18.throttle16.msg_count.Control::0        21459                      
system.ruby.network.routers18.throttle16.msg_count.Response_Control::1        14683                      
system.ruby.network.routers18.throttle16.msg_count.Response_Control::2        19857                      
system.ruby.network.routers18.throttle16.msg_count.Response_Data::1        21081                      
system.ruby.network.routers18.throttle16.msg_count.Writeback_Data::0        18880                      
system.ruby.network.routers18.throttle16.msg_count.Writeback_Data::1            1                      
system.ruby.network.routers18.throttle17.link_utilization     0.460990                      
system.ruby.network.routers18.throttle17.msg_bytes.Control::0       168648                      
system.ruby.network.routers18.throttle17.msg_bytes.Response_Control::1         1856                      
system.ruby.network.routers18.throttle17.msg_bytes.Response_Data::1       567080                      
system.ruby.network.routers18.throttle17.msg_count.Control::0        21081                      
system.ruby.network.routers18.throttle17.msg_count.Response_Control::1          232                      
system.ruby.network.routers18.throttle17.msg_count.Response_Data::1        14177                      
system.ruby.network.routers18.throttle2.link_utilization            0                      
system.ruby.network.routers18.throttle3.link_utilization            0                      
system.ruby.network.routers18.throttle4.link_utilization            0                      
system.ruby.network.routers18.throttle5.link_utilization            0                      
system.ruby.network.routers18.throttle6.link_utilization            0                      
system.ruby.network.routers18.throttle7.link_utilization            0                      
system.ruby.network.routers18.throttle8.link_utilization            0                      
system.ruby.network.routers18.throttle9.link_utilization            0                      
system.ruby.outstanding_req_hist_seqr::bucket_size            1                      
system.ruby.outstanding_req_hist_seqr::max_bucket            9                      
system.ruby.outstanding_req_hist_seqr::samples      1010528                      
system.ruby.outstanding_req_hist_seqr::mean     1.000003                      
system.ruby.outstanding_req_hist_seqr::gmean     1.000002                      
system.ruby.outstanding_req_hist_seqr::stdev     0.001723                      
system.ruby.outstanding_req_hist_seqr    |           0      0.00%      0.00% |     1010525    100.00%    100.00% |           3      0.00%    100.00% |           0      0.00%    100.00% |           0      0.00%    100.00% |           0      0.00%    100.00% |           0      0.00%    100.00% |           0      0.00%    100.00% |           0      0.00%    100.00% |           0      0.00%    100.00%
system.ruby.outstanding_req_hist_seqr::total      1010528                      
system.ruby.pwrStateResidencyTicks::UNDEFINED   5000000000                       # Cumulative time (in ticks) in various power states
system.sys_port_proxy.pwrStateResidencyTicks::UNDEFINED   5000000000                       # Cumulative time (in ticks) in various power states
system.voltage_domain.voltage                       1                       # Voltage in Volts

---------- End Simulation Statistics   ----------
