
---------- Begin Simulation Statistics ----------
final_tick                                  591320721                       # Number of ticks from beginning of simulation (restored from checkpoints and never reset)
host_mem_usage                                 869816                       # Number of bytes of host memory used
host_seconds                                   283.76                       # Real time elapsed on the host
host_tick_rate                                2083857                       # Simulator tick rate (ticks/s)
sim_freq                                   1000000000                       # Frequency of simulated ticks
sim_seconds                                  0.591321                       # Number of seconds simulated
sim_ticks                                   591320721                       # Number of ticks simulated
system.clk_domain.clock                             1                       # Clock period in ticks
system.cpu.pwrStateResidencyTicks::UNDEFINED    591320721                       # Cumulative time (in ticks) in various power states
system.mem_ctrls.avgBusLat                       5.00                       # Average bus latency per DRAM burst
system.mem_ctrls.avgGap                        173.67                       # Average gap between requests
system.mem_ctrls.avgMemAccLat                   33.32                       # Average memory access latency per DRAM burst
system.mem_ctrls.avgPriority_.ruby.dir_cntrl0::samples   3007614.00                       # Average QoS priority value for accepted requests
system.mem_ctrls.avgQLat                        14.32                       # Average queueing delay per DRAM burst
system.mem_ctrls.avgRdBW                       177.36                       # Average DRAM read bandwidth in MiByte/s
system.mem_ctrls.avgRdBWSys                    203.44                       # Average system read bandwidth in MiByte/s
system.mem_ctrls.avgRdQLen                       1.22                       # Average read queue length when enqueuing
system.mem_ctrls.avgWrBW                       148.16                       # Average achieved write bandwidth in MiByte/s
system.mem_ctrls.avgWrBWSys                    165.08                       # Average system write bandwidth in MiByte/s
system.mem_ctrls.avgWrQLen                      24.79                       # Average write queue length when enqueuing
system.mem_ctrls.busUtil                         2.54                       # Data bus utilization in percentage
system.mem_ctrls.busUtilRead                     1.39                       # Data bus utilization in percentage for reads
system.mem_ctrls.busUtilWrite                    1.16                       # Data bus utilization in percentage for writes
system.mem_ctrls.bw_read::.ruby.dir_cntrl0    203436023                       # Total read bandwidth from this memory (bytes/s)
system.mem_ctrls.bw_read::total             203436023                       # Total read bandwidth from this memory (bytes/s)
system.mem_ctrls.bw_total::.ruby.dir_cntrl0    368511490                       # Total bandwidth to/from this memory (bytes/s)
system.mem_ctrls.bw_total::total            368511490                       # Total bandwidth to/from this memory (bytes/s)
system.mem_ctrls.bw_write::.ruby.dir_cntrl0    165075467                       # Write bandwidth from this memory (bytes/s)
system.mem_ctrls.bw_write::total            165075467                       # Write bandwidth from this memory (bytes/s)
system.mem_ctrls.bytesPerActivate::samples       314827                       # Bytes accessed per row activation
system.mem_ctrls.bytesPerActivate::mean    611.395592                       # Bytes accessed per row activation
system.mem_ctrls.bytesPerActivate::gmean   476.645701                       # Bytes accessed per row activation
system.mem_ctrls.bytesPerActivate::stdev   324.347971                       # Bytes accessed per row activation
system.mem_ctrls.bytesPerActivate::0-127        24781      7.87%      7.87% # Bytes accessed per row activation
system.mem_ctrls.bytesPerActivate::128-255        35156     11.17%     19.04% # Bytes accessed per row activation
system.mem_ctrls.bytesPerActivate::256-383        29569      9.39%     28.43% # Bytes accessed per row activation
system.mem_ctrls.bytesPerActivate::384-511        21275      6.76%     35.19% # Bytes accessed per row activation
system.mem_ctrls.bytesPerActivate::512-639        24045      7.64%     42.83% # Bytes accessed per row activation
system.mem_ctrls.bytesPerActivate::640-767        40522     12.87%     55.70% # Bytes accessed per row activation
system.mem_ctrls.bytesPerActivate::768-895        50310     15.98%     71.68% # Bytes accessed per row activation
system.mem_ctrls.bytesPerActivate::896-1023        40649     12.91%     84.59% # Bytes accessed per row activation
system.mem_ctrls.bytesPerActivate::1024-1151        48520     15.41%    100.00% # Bytes accessed per row activation
system.mem_ctrls.bytesPerActivate::total       314827                       # Bytes accessed per row activation
system.mem_ctrls.bytesReadDRAM              104874048                       # Total number of bytes read from DRAM
system.mem_ctrls.bytesReadSys               120296000                       # Total read bytes from the system interface side
system.mem_ctrls.bytesReadWrQ                15421952                       # Total number of bytes read from write queue
system.mem_ctrls.bytesWritten                87611776                       # Total number of bytes written to DRAM
system.mem_ctrls.bytesWrittenSys             97612544                       # Total written bytes from the system interface side
system.mem_ctrls.bytes_read::.ruby.dir_cntrl0    120295936                       # Number of bytes read from this memory
system.mem_ctrls.bytes_read::total          120295936                       # Number of bytes read from this memory
system.mem_ctrls.bytes_written::.ruby.dir_cntrl0     97612544                       # Number of bytes written to this memory
system.mem_ctrls.bytes_written::total        97612544                       # Number of bytes written to this memory
system.mem_ctrls.masterReadAccesses::.ruby.dir_cntrl0      1879625                       # Per-master read serviced memory accesses
system.mem_ctrls.masterReadAvgLat::.ruby.dir_cntrl0        29.05                       # Per-master read average memory access latency
system.mem_ctrls.masterReadBytes::.ruby.dir_cntrl0    104874048                       # Per-master bytes read from memory
system.mem_ctrls.masterReadRate::.ruby.dir_cntrl0 177355611.389102667570                       # Per-master bytes read from memory rate (Bytes/sec)
system.mem_ctrls.masterReadTotalLat::.ruby.dir_cntrl0     54596598                       # Per-master read total memory access latency
system.mem_ctrls.masterWriteAccesses::.ruby.dir_cntrl0      1525196                       # Per-master write serviced memory accesses
system.mem_ctrls.masterWriteAvgLat::.ruby.dir_cntrl0      9268.90                       # Per-master write average memory access latency
system.mem_ctrls.masterWriteBytes::.ruby.dir_cntrl0     87611776                       # Per-master bytes write to memory
system.mem_ctrls.masterWriteRate::.ruby.dir_cntrl0 148162871.498629599810                       # Per-master bytes write to memory rate (Bytes/sec)
system.mem_ctrls.masterWriteTotalLat::.ruby.dir_cntrl0  14136894462                       # Per-master write total memory access latency
system.mem_ctrls.mergedWrBursts                156239                       # Number of DRAM write bursts merged with an existing one
system.mem_ctrls.neitherReadNorWriteReqs            0                       # Number of requests that are neither read nor write
system.mem_ctrls.numRdRetry                         0                       # Number of times read queue was full causing retry
system.mem_ctrls.numReadWriteTurnArounds        76816                       # Number of turnarounds from READ to WRITE
system.mem_ctrls.numStayReadState             4848293                       # Number of times bus staying in READ state
system.mem_ctrls.numStayWriteState            1296853                       # Number of times bus staying in WRITE state
system.mem_ctrls.numWrRetry                         0                       # Number of times write queue was full causing retry
system.mem_ctrls.numWriteReadTurnArounds        76816                       # Number of turnarounds from WRITE to READ
system.mem_ctrls.num_reads::.ruby.dir_cntrl0      1879624                       # Number of read requests responded to by this memory
system.mem_ctrls.num_reads::total             1879624                       # Number of read requests responded to by this memory
system.mem_ctrls.num_writes::.ruby.dir_cntrl0      1525196                       # Number of write requests responded to by this memory
system.mem_ctrls.num_writes::total            1525196                       # Number of write requests responded to by this memory
system.mem_ctrls.pageHitRate                    89.53                       # Row buffer hit rate, read and write combined
system.mem_ctrls.peakBW                      12800.00                       # Theoretical peak bandwidth in MiByte/s
system.mem_ctrls.perBankRdBursts::0            488607                       # Per bank write bursts
system.mem_ctrls.perBankRdBursts::1            527055                       # Per bank write bursts
system.mem_ctrls.perBankRdBursts::2            527187                       # Per bank write bursts
system.mem_ctrls.perBankRdBursts::3             95808                       # Per bank write bursts
system.mem_ctrls.perBankRdBursts::4                 0                       # Per bank write bursts
system.mem_ctrls.perBankRdBursts::5                 0                       # Per bank write bursts
system.mem_ctrls.perBankRdBursts::6                 0                       # Per bank write bursts
system.mem_ctrls.perBankRdBursts::7                 0                       # Per bank write bursts
system.mem_ctrls.perBankRdBursts::8                 0                       # Per bank write bursts
system.mem_ctrls.perBankRdBursts::9                 0                       # Per bank write bursts
system.mem_ctrls.perBankRdBursts::10                0                       # Per bank write bursts
system.mem_ctrls.perBankRdBursts::11                0                       # Per bank write bursts
system.mem_ctrls.perBankRdBursts::12                0                       # Per bank write bursts
system.mem_ctrls.perBankRdBursts::13                0                       # Per bank write bursts
system.mem_ctrls.perBankRdBursts::14                0                       # Per bank write bursts
system.mem_ctrls.perBankRdBursts::15                0                       # Per bank write bursts
system.mem_ctrls.perBankWrBursts::0            408754                       # Per bank write bursts
system.mem_ctrls.perBankWrBursts::1            439613                       # Per bank write bursts
system.mem_ctrls.perBankWrBursts::2            439488                       # Per bank write bursts
system.mem_ctrls.perBankWrBursts::3             81079                       # Per bank write bursts
system.mem_ctrls.perBankWrBursts::4                 0                       # Per bank write bursts
system.mem_ctrls.perBankWrBursts::5                 0                       # Per bank write bursts
system.mem_ctrls.perBankWrBursts::6                 0                       # Per bank write bursts
system.mem_ctrls.perBankWrBursts::7                 0                       # Per bank write bursts
system.mem_ctrls.perBankWrBursts::8                 0                       # Per bank write bursts
system.mem_ctrls.perBankWrBursts::9                 0                       # Per bank write bursts
system.mem_ctrls.perBankWrBursts::10                0                       # Per bank write bursts
system.mem_ctrls.perBankWrBursts::11                0                       # Per bank write bursts
system.mem_ctrls.perBankWrBursts::12                0                       # Per bank write bursts
system.mem_ctrls.perBankWrBursts::13                0                       # Per bank write bursts
system.mem_ctrls.perBankWrBursts::14                0                       # Per bank write bursts
system.mem_ctrls.perBankWrBursts::15                0                       # Per bank write bursts
system.mem_ctrls.priorityMaxLatency      0.001206403000                       # per QoS priority maximum request to response latency (s)
system.mem_ctrls.priorityMinLatency      0.000000019000                       # per QoS priority minimum request to response latency (s)
system.mem_ctrls.pwrStateResidencyTicks::UNDEFINED    591320721                       # Cumulative time (in ticks) in various power states
system.mem_ctrls.rdPerTurnAround::samples        76816                       # Reads before turning the bus around for writes
system.mem_ctrls.rdPerTurnAround::mean      21.332079                       # Reads before turning the bus around for writes
system.mem_ctrls.rdPerTurnAround::gmean     21.189940                       # Reads before turning the bus around for writes
system.mem_ctrls.rdPerTurnAround::stdev      2.472074                       # Reads before turning the bus around for writes
system.mem_ctrls.rdPerTurnAround::12-13             8      0.01%      0.01% # Reads before turning the bus around for writes
system.mem_ctrls.rdPerTurnAround::14-15           307      0.40%      0.41% # Reads before turning the bus around for writes
system.mem_ctrls.rdPerTurnAround::16-17          3367      4.38%      4.79% # Reads before turning the bus around for writes
system.mem_ctrls.rdPerTurnAround::18-19         14111     18.37%     23.16% # Reads before turning the bus around for writes
system.mem_ctrls.rdPerTurnAround::20-21         24355     31.71%     54.87% # Reads before turning the bus around for writes
system.mem_ctrls.rdPerTurnAround::22-23         20664     26.90%     81.77% # Reads before turning the bus around for writes
system.mem_ctrls.rdPerTurnAround::24-25          9981     12.99%     94.76% # Reads before turning the bus around for writes
system.mem_ctrls.rdPerTurnAround::26-27          3140      4.09%     98.85% # Reads before turning the bus around for writes
system.mem_ctrls.rdPerTurnAround::28-29           722      0.94%     99.79% # Reads before turning the bus around for writes
system.mem_ctrls.rdPerTurnAround::30-31           138      0.18%     99.97% # Reads before turning the bus around for writes
system.mem_ctrls.rdPerTurnAround::32-33            14      0.02%     99.99% # Reads before turning the bus around for writes
system.mem_ctrls.rdPerTurnAround::34-35             8      0.01%    100.00% # Reads before turning the bus around for writes
system.mem_ctrls.rdPerTurnAround::36-37             1      0.00%    100.00% # Reads before turning the bus around for writes
system.mem_ctrls.rdPerTurnAround::total         76816                       # Reads before turning the bus around for writes
system.mem_ctrls.rdQLenPdf::0                 1418181                       # What read queue length does an incoming req see
system.mem_ctrls.rdQLenPdf::1                  220476                       # What read queue length does an incoming req see
system.mem_ctrls.rdQLenPdf::2                       0                       # What read queue length does an incoming req see
system.mem_ctrls.rdQLenPdf::3                       0                       # What read queue length does an incoming req see
system.mem_ctrls.rdQLenPdf::4                       0                       # What read queue length does an incoming req see
system.mem_ctrls.rdQLenPdf::5                       0                       # What read queue length does an incoming req see
system.mem_ctrls.rdQLenPdf::6                       0                       # What read queue length does an incoming req see
system.mem_ctrls.rdQLenPdf::7                       0                       # What read queue length does an incoming req see
system.mem_ctrls.rdQLenPdf::8                       0                       # What read queue length does an incoming req see
system.mem_ctrls.rdQLenPdf::9                       0                       # What read queue length does an incoming req see
system.mem_ctrls.rdQLenPdf::10                      0                       # What read queue length does an incoming req see
system.mem_ctrls.rdQLenPdf::11                      0                       # What read queue length does an incoming req see
system.mem_ctrls.rdQLenPdf::12                      0                       # What read queue length does an incoming req see
system.mem_ctrls.rdQLenPdf::13                      0                       # What read queue length does an incoming req see
system.mem_ctrls.rdQLenPdf::14                      0                       # What read queue length does an incoming req see
system.mem_ctrls.rdQLenPdf::15                      0                       # What read queue length does an incoming req see
system.mem_ctrls.rdQLenPdf::16                      0                       # What read queue length does an incoming req see
system.mem_ctrls.rdQLenPdf::17                      0                       # What read queue length does an incoming req see
system.mem_ctrls.rdQLenPdf::18                      0                       # What read queue length does an incoming req see
system.mem_ctrls.rdQLenPdf::19                      0                       # What read queue length does an incoming req see
system.mem_ctrls.rdQLenPdf::20                      0                       # What read queue length does an incoming req see
system.mem_ctrls.rdQLenPdf::21                      0                       # What read queue length does an incoming req see
system.mem_ctrls.rdQLenPdf::22                      0                       # What read queue length does an incoming req see
system.mem_ctrls.rdQLenPdf::23                      0                       # What read queue length does an incoming req see
system.mem_ctrls.rdQLenPdf::24                      0                       # What read queue length does an incoming req see
system.mem_ctrls.rdQLenPdf::25                      0                       # What read queue length does an incoming req see
system.mem_ctrls.rdQLenPdf::26                      0                       # What read queue length does an incoming req see
system.mem_ctrls.rdQLenPdf::27                      0                       # What read queue length does an incoming req see
system.mem_ctrls.rdQLenPdf::28                      0                       # What read queue length does an incoming req see
system.mem_ctrls.rdQLenPdf::29                      0                       # What read queue length does an incoming req see
system.mem_ctrls.rdQLenPdf::30                      0                       # What read queue length does an incoming req see
system.mem_ctrls.rdQLenPdf::31                      0                       # What read queue length does an incoming req see
system.mem_ctrls.readBursts                   1879625                       # Number of DRAM read bursts, including those serviced by the write queue
system.mem_ctrls.readPktSize::0                     0                       # Read request sizes (log2)
system.mem_ctrls.readPktSize::1                     0                       # Read request sizes (log2)
system.mem_ctrls.readPktSize::2                     0                       # Read request sizes (log2)
system.mem_ctrls.readPktSize::3                     0                       # Read request sizes (log2)
system.mem_ctrls.readPktSize::4                     0                       # Read request sizes (log2)
system.mem_ctrls.readPktSize::5                     0                       # Read request sizes (log2)
system.mem_ctrls.readPktSize::6               1879625                       # Read request sizes (log2)
system.mem_ctrls.readReqs                     1879625                       # Number of read requests accepted
system.mem_ctrls.readRowHitRate                 81.81                       # Row buffer hit rate for reads
system.mem_ctrls.readRowHits                  1340519                       # Number of row buffer hits during reads
system.mem_ctrls.servicedByWrQ                 240968                       # Number of DRAM read bursts serviced by the write queue
system.mem_ctrls.totBusLat                    8193285                       # Total ticks spent in databus transfers
system.mem_ctrls.totGap                     591320449                       # Total gap between requests
system.mem_ctrls.totMemAccLat                54596598                       # Total ticks spent from burst creation until serviced by the DRAM
system.mem_ctrls.totQLat                     23462115                       # Total ticks spent queuing
system.mem_ctrls.wrPerTurnAround::samples        76816                       # Writes before turning the bus around for reads
system.mem_ctrls.wrPerTurnAround::mean      17.820949                       # Writes before turning the bus around for reads
system.mem_ctrls.wrPerTurnAround::gmean     17.802769                       # Writes before turning the bus around for reads
system.mem_ctrls.wrPerTurnAround::stdev      0.788855                       # Writes before turning the bus around for reads
system.mem_ctrls.wrPerTurnAround::16            10310     13.42%     13.42% # Writes before turning the bus around for reads
system.mem_ctrls.wrPerTurnAround::17              728      0.95%     14.37% # Writes before turning the bus around for reads
system.mem_ctrls.wrPerTurnAround::18            58524     76.19%     90.56% # Writes before turning the bus around for reads
system.mem_ctrls.wrPerTurnAround::19             6925      9.02%     99.57% # Writes before turning the bus around for reads
system.mem_ctrls.wrPerTurnAround::20              318      0.41%     99.99% # Writes before turning the bus around for reads
system.mem_ctrls.wrPerTurnAround::21               11      0.01%    100.00% # Writes before turning the bus around for reads
system.mem_ctrls.wrPerTurnAround::total         76816                       # Writes before turning the bus around for reads
system.mem_ctrls.wrQLenPdf::0                       1                       # What write queue length does an incoming req see
system.mem_ctrls.wrQLenPdf::1                       1                       # What write queue length does an incoming req see
system.mem_ctrls.wrQLenPdf::2                       1                       # What write queue length does an incoming req see
system.mem_ctrls.wrQLenPdf::3                       1                       # What write queue length does an incoming req see
system.mem_ctrls.wrQLenPdf::4                       1                       # What write queue length does an incoming req see
system.mem_ctrls.wrQLenPdf::5                       1                       # What write queue length does an incoming req see
system.mem_ctrls.wrQLenPdf::6                       1                       # What write queue length does an incoming req see
system.mem_ctrls.wrQLenPdf::7                       1                       # What write queue length does an incoming req see
system.mem_ctrls.wrQLenPdf::8                       1                       # What write queue length does an incoming req see
system.mem_ctrls.wrQLenPdf::9                       1                       # What write queue length does an incoming req see
system.mem_ctrls.wrQLenPdf::10                      1                       # What write queue length does an incoming req see
system.mem_ctrls.wrQLenPdf::11                      1                       # What write queue length does an incoming req see
system.mem_ctrls.wrQLenPdf::12                      1                       # What write queue length does an incoming req see
system.mem_ctrls.wrQLenPdf::13                      1                       # What write queue length does an incoming req see
system.mem_ctrls.wrQLenPdf::14                      1                       # What write queue length does an incoming req see
system.mem_ctrls.wrQLenPdf::15                  65678                       # What write queue length does an incoming req see
system.mem_ctrls.wrQLenPdf::16                  66641                       # What write queue length does an incoming req see
system.mem_ctrls.wrQLenPdf::17                  75362                       # What write queue length does an incoming req see
system.mem_ctrls.wrQLenPdf::18                  76953                       # What write queue length does an incoming req see
system.mem_ctrls.wrQLenPdf::19                  77095                       # What write queue length does an incoming req see
system.mem_ctrls.wrQLenPdf::20                  77112                       # What write queue length does an incoming req see
system.mem_ctrls.wrQLenPdf::21                  77130                       # What write queue length does an incoming req see
system.mem_ctrls.wrQLenPdf::22                  77177                       # What write queue length does an incoming req see
system.mem_ctrls.wrQLenPdf::23                  77169                       # What write queue length does an incoming req see
system.mem_ctrls.wrQLenPdf::24                  77170                       # What write queue length does an incoming req see
system.mem_ctrls.wrQLenPdf::25                  77369                       # What write queue length does an incoming req see
system.mem_ctrls.wrQLenPdf::26                  77904                       # What write queue length does an incoming req see
system.mem_ctrls.wrQLenPdf::27                  80000                       # What write queue length does an incoming req see
system.mem_ctrls.wrQLenPdf::28                  78157                       # What write queue length does an incoming req see
system.mem_ctrls.wrQLenPdf::29                  76875                       # What write queue length does an incoming req see
system.mem_ctrls.wrQLenPdf::30                  76874                       # What write queue length does an incoming req see
system.mem_ctrls.wrQLenPdf::31                  76847                       # What write queue length does an incoming req see
system.mem_ctrls.wrQLenPdf::32                  76826                       # What write queue length does an incoming req see
system.mem_ctrls.wrQLenPdf::33                    564                       # What write queue length does an incoming req see
system.mem_ctrls.wrQLenPdf::34                     37                       # What write queue length does an incoming req see
system.mem_ctrls.wrQLenPdf::35                      2                       # What write queue length does an incoming req see
system.mem_ctrls.wrQLenPdf::36                      0                       # What write queue length does an incoming req see
system.mem_ctrls.wrQLenPdf::37                      0                       # What write queue length does an incoming req see
system.mem_ctrls.wrQLenPdf::38                      0                       # What write queue length does an incoming req see
system.mem_ctrls.wrQLenPdf::39                      0                       # What write queue length does an incoming req see
system.mem_ctrls.wrQLenPdf::40                      0                       # What write queue length does an incoming req see
system.mem_ctrls.wrQLenPdf::41                      0                       # What write queue length does an incoming req see
system.mem_ctrls.wrQLenPdf::42                      0                       # What write queue length does an incoming req see
system.mem_ctrls.wrQLenPdf::43                      0                       # What write queue length does an incoming req see
system.mem_ctrls.wrQLenPdf::44                      0                       # What write queue length does an incoming req see
system.mem_ctrls.wrQLenPdf::45                      0                       # What write queue length does an incoming req see
system.mem_ctrls.wrQLenPdf::46                      0                       # What write queue length does an incoming req see
system.mem_ctrls.wrQLenPdf::47                      0                       # What write queue length does an incoming req see
system.mem_ctrls.wrQLenPdf::48                      0                       # What write queue length does an incoming req see
system.mem_ctrls.wrQLenPdf::49                      0                       # What write queue length does an incoming req see
system.mem_ctrls.wrQLenPdf::50                      0                       # What write queue length does an incoming req see
system.mem_ctrls.wrQLenPdf::51                      0                       # What write queue length does an incoming req see
system.mem_ctrls.wrQLenPdf::52                      0                       # What write queue length does an incoming req see
system.mem_ctrls.wrQLenPdf::53                      0                       # What write queue length does an incoming req see
system.mem_ctrls.wrQLenPdf::54                      0                       # What write queue length does an incoming req see
system.mem_ctrls.wrQLenPdf::55                      0                       # What write queue length does an incoming req see
system.mem_ctrls.wrQLenPdf::56                      0                       # What write queue length does an incoming req see
system.mem_ctrls.wrQLenPdf::57                      0                       # What write queue length does an incoming req see
system.mem_ctrls.wrQLenPdf::58                      0                       # What write queue length does an incoming req see
system.mem_ctrls.wrQLenPdf::59                      0                       # What write queue length does an incoming req see
system.mem_ctrls.wrQLenPdf::60                      0                       # What write queue length does an incoming req see
system.mem_ctrls.wrQLenPdf::61                      0                       # What write queue length does an incoming req see
system.mem_ctrls.wrQLenPdf::62                      0                       # What write queue length does an incoming req see
system.mem_ctrls.wrQLenPdf::63                      0                       # What write queue length does an incoming req see
system.mem_ctrls.writeBursts                  1525196                       # Number of DRAM write bursts, including those merged in the write queue
system.mem_ctrls.writePktSize::0                    0                       # Write request sizes (log2)
system.mem_ctrls.writePktSize::1                    0                       # Write request sizes (log2)
system.mem_ctrls.writePktSize::2                    0                       # Write request sizes (log2)
system.mem_ctrls.writePktSize::3                    0                       # Write request sizes (log2)
system.mem_ctrls.writePktSize::4                    0                       # Write request sizes (log2)
system.mem_ctrls.writePktSize::5                    0                       # Write request sizes (log2)
system.mem_ctrls.writePktSize::6              1525196                       # Write request sizes (log2)
system.mem_ctrls.writeReqs                    1525196                       # Number of write requests accepted
system.mem_ctrls.writeRowHitRate                98.78                       # Row buffer hit rate for writes
system.mem_ctrls.writeRowHits                 1352241                       # Number of row buffer hits during writes
system.mem_ctrls_0.actBackEnergy          41740586544                       # Energy for active background per rank (pJ)
system.mem_ctrls_0.actEnergy               2247893340                       # Energy for activate commands per rank (pJ)
system.mem_ctrls_0.actPowerDownEnergy    223737171552                       # Energy for active power-down per rank (pJ)
system.mem_ctrls_0.averagePower            590.681963                       # Core power per rank (mW)
system.mem_ctrls_0.memoryStateTime::IDLE       415097                       # Time in different power states
system.mem_ctrls_0.memoryStateTime::REF      19745960                       # Time in different power states
system.mem_ctrls_0.memoryStateTime::SREF           75                       # Time in different power states
system.mem_ctrls_0.memoryStateTime::PRE_PDN      6590153                       # Time in different power states
system.mem_ctrls_0.memoryStateTime::ACT      73917744                       # Time in different power states
system.mem_ctrls_0.memoryStateTime::ACT_PDN    490651692                       # Time in different power states
system.mem_ctrls_0.preBackEnergy            976220928                       # Energy for precharge background per rank (pJ)
system.mem_ctrls_0.preEnergy               1216491528                       # Energy for precharge commands per rank (pJ)
system.mem_ctrls_0.prePowerDownEnergy      2530618752                       # Energy for precharge power-down per rank (pJ)
system.mem_ctrls_0.readEnergy             18720017568                       # Energy for read commands per rank (pJ)
system.mem_ctrls_0.refreshEnergy         46679449440.000008                       # Energy for refresh commands per rank (pJ)
system.mem_ctrls_0.selfRefreshEnergy     614640.000000                       # Energy for self refresh per rank (pJ)
system.mem_ctrls_0.totalEnergy           349282484412                       # Total energy per rank (pJ)
system.mem_ctrls_0.totalIdleTime            497241920                       # Total Idle time Per DRAM Rank
system.mem_ctrls_0.writeEnergy            11433336768                       # Energy for write commands per rank (pJ)
system.mem_ctrls_1.actBackEnergy               112176                       # Energy for active background per rank (pJ)
system.mem_ctrls_1.actEnergy                        0                       # Energy for activate commands per rank (pJ)
system.mem_ctrls_1.actPowerDownEnergy               0                       # Energy for active power-down per rank (pJ)
system.mem_ctrls_1.averagePower            240.005797                       # Core power per rank (mW)
system.mem_ctrls_1.memoryStateTime::IDLE         7792                       # Time in different power states
system.mem_ctrls_1.memoryStateTime::REF           260                       # Time in different power states
system.mem_ctrls_1.memoryStateTime::SREF    591305143                       # Time in different power states
system.mem_ctrls_1.memoryStateTime::PRE_PDN         7526                       # Time in different power states
system.mem_ctrls_1.memoryStateTime::ACT             0                       # Time in different power states
system.mem_ctrls_1.memoryStateTime::ACT_PDN            0                       # Time in different power states
system.mem_ctrls_1.preBackEnergy              2997504                       # Energy for precharge background per rank (pJ)
system.mem_ctrls_1.preEnergy                        0                       # Energy for precharge commands per rank (pJ)
system.mem_ctrls_1.prePowerDownEnergy         2889984                       # Energy for precharge power-down per rank (pJ)
system.mem_ctrls_1.readEnergy                       0                       # Energy for read commands per rank (pJ)
system.mem_ctrls_1.refreshEnergy         614640.000000                       # Energy for refresh commands per rank (pJ)
system.mem_ctrls_1.selfRefreshEnergy     141913786560                       # Energy for self refresh per rank (pJ)
system.mem_ctrls_1.totalEnergy           141920400864                       # Total energy per rank (pJ)
system.mem_ctrls_1.totalIdleTime                 7526                       # Total Idle time Per DRAM Rank
system.mem_ctrls_1.writeEnergy                      0                       # Energy for write commands per rank (pJ)
system.pwrStateResidencyTicks::UNDEFINED    591320721                       # Cumulative time (in ticks) in various power states
system.ruby.Directory_Controller.CleanReplacement       354423      0.00%      0.00%
system.ruby.Directory_Controller.Data         1525196      0.00%      0.00%
system.ruby.Directory_Controller.Fetch        1879625      0.00%      0.00%
system.ruby.Directory_Controller.I.Fetch      1879625      0.00%      0.00%
system.ruby.Directory_Controller.IM.Memory_Data      1879624      0.00%      0.00%
system.ruby.Directory_Controller.M.CleanReplacement       354423      0.00%      0.00%
system.ruby.Directory_Controller.M.Data       1525196      0.00%      0.00%
system.ruby.Directory_Controller.MI.Memory_Ack      1525196      0.00%      0.00%
system.ruby.Directory_Controller.Memory_Ack      1525196      0.00%      0.00%
system.ruby.Directory_Controller.Memory_Data      1879624      0.00%      0.00%
system.ruby.IFETCH.hit_latency_hist_seqr::bucket_size           16                      
system.ruby.IFETCH.hit_latency_hist_seqr::max_bucket          159                      
system.ruby.IFETCH.hit_latency_hist_seqr::samples         1169                      
system.ruby.IFETCH.hit_latency_hist_seqr::mean    16.538067                      
system.ruby.IFETCH.hit_latency_hist_seqr::gmean     3.755838                      
system.ruby.IFETCH.hit_latency_hist_seqr::stdev    36.244066                      
system.ruby.IFETCH.hit_latency_hist_seqr |        1017     87.00%     87.00% |           0      0.00%     87.00% |           0      0.00%     87.00% |           0      0.00%     87.00% |           0      0.00%     87.00% |           0      0.00%     87.00% |          91      7.78%     94.78% |          61      5.22%    100.00% |           0      0.00%    100.00% |           0      0.00%    100.00%
system.ruby.IFETCH.hit_latency_hist_seqr::total         1169                      
system.ruby.IFETCH.latency_hist_seqr::bucket_size         4096                      
system.ruby.IFETCH.latency_hist_seqr::max_bucket        40959                      
system.ruby.IFETCH.latency_hist_seqr::samples       250257                      
system.ruby.IFETCH.latency_hist_seqr::mean  4151.109623                      
system.ruby.IFETCH.latency_hist_seqr::gmean  2827.753519                      
system.ruby.IFETCH.latency_hist_seqr::stdev  2400.780045                      
system.ruby.IFETCH.latency_hist_seqr     |       93066     37.19%     37.19% |      146619     58.59%     95.78% |        9917      3.96%     99.74% |         623      0.25%     99.99% |          30      0.01%    100.00% |           2      0.00%    100.00% |           0      0.00%    100.00% |           0      0.00%    100.00% |           0      0.00%    100.00% |           0      0.00%    100.00%
system.ruby.IFETCH.latency_hist_seqr::total       250257                      
system.ruby.IFETCH.miss_latency_hist_seqr::bucket_size         4096                      
system.ruby.IFETCH.miss_latency_hist_seqr::max_bucket        40959                      
system.ruby.IFETCH.miss_latency_hist_seqr::samples       249088                      
system.ruby.IFETCH.miss_latency_hist_seqr::mean  4170.513666                      
system.ruby.IFETCH.miss_latency_hist_seqr::gmean  2917.040199                      
system.ruby.IFETCH.miss_latency_hist_seqr::stdev  2389.599229                      
system.ruby.IFETCH.miss_latency_hist_seqr |       91897     36.89%     36.89% |      146619     58.86%     95.76% |        9917      3.98%     99.74% |         623      0.25%     99.99% |          30      0.01%    100.00% |           2      0.00%    100.00% |           0      0.00%    100.00% |           0      0.00%    100.00% |           0      0.00%    100.00% |           0      0.00%    100.00%
system.ruby.IFETCH.miss_latency_hist_seqr::total       249088                      
system.ruby.L1Cache_Controller.Ack       |        9258     12.70%     12.70% |        9203     12.62%     25.32% |        8873     12.17%     37.48% |        9004     12.35%     49.83% |        9060     12.42%     62.25% |        8995     12.33%     74.59% |        9278     12.72%     87.31% |        9252     12.69%    100.00%
system.ruby.L1Cache_Controller.Ack::total        72923                      
system.ruby.L1Cache_Controller.Ack_all   |        8767     12.56%     12.56% |        8780     12.58%     25.14% |        8601     12.32%     37.47% |        8658     12.41%     49.88% |        8615     12.35%     62.22% |        8718     12.49%     74.71% |        8805     12.62%     87.33% |        8841     12.67%    100.00%
system.ruby.L1Cache_Controller.Ack_all::total        69785                      
system.ruby.L1Cache_Controller.Data      |        7300     12.44%     12.44% |        7370     12.56%     25.00% |        7293     12.43%     37.42% |        7335     12.50%     49.92% |        7237     12.33%     62.25% |        7265     12.38%     74.63% |        7425     12.65%     87.28% |        7466     12.72%    100.00%
system.ruby.L1Cache_Controller.Data::total        58691                      
system.ruby.L1Cache_Controller.DataS_fromL1 |        9799     12.60%     12.60% |        9559     12.29%     24.88% |        9672     12.43%     37.32% |        9857     12.67%     49.99% |        9711     12.48%     62.47% |        9698     12.47%     74.94% |        9720     12.49%     87.43% |        9778     12.57%    100.00%
system.ruby.L1Cache_Controller.DataS_fromL1::total        77794                      
system.ruby.L1Cache_Controller.Data_Exclusive |       23372     12.46%     12.46% |       23511     12.54%     25.00% |       23607     12.59%     37.59% |       23335     12.44%     50.03% |       23460     12.51%     62.54% |       23362     12.46%     75.00% |       23477     12.52%     87.52% |       23412     12.48%    100.00%
system.ruby.L1Cache_Controller.Data_Exclusive::total       187536                      
system.ruby.L1Cache_Controller.Data_all_Acks |      260428     12.51%     12.51% |      260298     12.51%     25.02% |      260131     12.50%     37.52% |      259893     12.49%     50.01% |      260171     12.50%     62.51% |      259723     12.48%     74.99% |      260400     12.51%     87.51% |      260002     12.49%    100.00%
system.ruby.L1Cache_Controller.Data_all_Acks::total      2081046                      
system.ruby.L1Cache_Controller.E.Fwd_GETS |          22     13.02%     13.02% |          27     15.98%     28.99% |          15      8.88%     37.87% |          27     15.98%     53.85% |          14      8.28%     62.13% |          23     13.61%     75.74% |          22     13.02%     88.76% |          19     11.24%    100.00%
system.ruby.L1Cache_Controller.E.Fwd_GETS::total          169                      
system.ruby.L1Cache_Controller.E.Fwd_GETX |         580     13.42%     13.42% |         534     12.36%     25.78% |         516     11.94%     37.71% |         532     12.31%     50.02% |         560     12.96%     62.98% |         561     12.98%     75.96% |         510     11.80%     87.76% |         529     12.24%    100.00%
system.ruby.L1Cache_Controller.E.Fwd_GETX::total         4322                      
system.ruby.L1Cache_Controller.E.Fwd_GET_INSTR |          23     10.45%     10.45% |          24     10.91%     21.36% |          27     12.27%     33.64% |          25     11.36%     45.00% |          33     15.00%     60.00% |          29     13.18%     73.18% |          31     14.09%     87.27% |          28     12.73%    100.00%
system.ruby.L1Cache_Controller.E.Fwd_GET_INSTR::total          220                      
system.ruby.L1Cache_Controller.E.Inv     |        6214     12.69%     12.69% |        6245     12.75%     25.44% |        6166     12.59%     38.03% |        5976     12.20%     50.23% |        6090     12.44%     62.67% |        6062     12.38%     75.05% |        6065     12.38%     87.43% |        6154     12.57%    100.00%
system.ruby.L1Cache_Controller.E.Inv::total        48972                      
system.ruby.L1Cache_Controller.E.L1_Replacement |       16424     12.37%     12.37% |       16569     12.48%     24.84% |       16742     12.61%     37.45% |       16644     12.53%     49.98% |       16621     12.52%     62.50% |       16561     12.47%     74.97% |       16711     12.58%     87.55% |       16527     12.45%    100.00%
system.ruby.L1Cache_Controller.E.L1_Replacement::total       132799                      
system.ruby.L1Cache_Controller.E.Load    |          11     16.42%     16.42% |           7     10.45%     26.87% |           9     13.43%     40.30% |           7     10.45%     50.75% |           8     11.94%     62.69% |           9     13.43%     76.12% |          12     17.91%     94.03% |           4      5.97%    100.00%
system.ruby.L1Cache_Controller.E.Load::total           67                      
system.ruby.L1Cache_Controller.E.Store   |         109     10.34%     10.34% |         112     10.63%     20.97% |         141     13.38%     34.35% |         131     12.43%     46.77% |         142     13.47%     60.25% |         126     11.95%     72.20% |         138     13.09%     85.29% |         155     14.71%    100.00%
system.ruby.L1Cache_Controller.E.Store::total         1054                      
system.ruby.L1Cache_Controller.Fwd_GETS  |        4720     12.40%     12.40% |        4811     12.64%     25.03% |        4715     12.38%     37.42% |        4742     12.46%     49.88% |        4753     12.48%     62.36% |        4831     12.69%     75.05% |        4810     12.63%     87.68% |        4689     12.32%    100.00%
system.ruby.L1Cache_Controller.Fwd_GETS::total        38071                      
system.ruby.L1Cache_Controller.Fwd_GETX  |       39331     12.56%     12.56% |       39035     12.47%     25.03% |       38971     12.45%     37.48% |       38984     12.45%     49.94% |       38918     12.43%     62.37% |       38994     12.46%     74.83% |       39550     12.63%     87.46% |       39250     12.54%    100.00%
system.ruby.L1Cache_Controller.Fwd_GETX::total       313033                      
system.ruby.L1Cache_Controller.Fwd_GET_INSTR |        4939     12.43%     12.43% |        5025     12.65%     25.08% |        4953     12.47%     37.55% |        4900     12.34%     49.89% |        4976     12.53%     62.41% |        4978     12.53%     74.95% |        4877     12.28%     87.22% |        5075     12.78%    100.00%
system.ruby.L1Cache_Controller.Fwd_GET_INSTR::total        39723                      
system.ruby.L1Cache_Controller.I.Ifetch  |         616     12.13%     12.13% |         639     12.58%     24.70% |         660     12.99%     37.70% |         616     12.13%     49.82% |         621     12.22%     62.05% |         654     12.87%     74.92% |         620     12.20%     87.13% |         654     12.87%    100.00%
system.ruby.L1Cache_Controller.I.Ifetch::total         5080                      
system.ruby.L1Cache_Controller.I.Inv     |          31     13.14%     13.14% |          17      7.20%     20.34% |          26     11.02%     31.36% |          41     17.37%     48.73% |          34     14.41%     63.14% |          39     16.53%     79.66% |          21      8.90%     88.56% |          27     11.44%    100.00%
system.ruby.L1Cache_Controller.I.Inv::total          236                      
system.ruby.L1Cache_Controller.I.L1_Replacement |      106224     12.52%     12.52% |      105992     12.49%     25.01% |      106059     12.50%     37.51% |      106295     12.53%     50.04% |      105740     12.46%     62.51% |      105874     12.48%     74.99% |      105991     12.49%     87.48% |      106239     12.52%    100.00%
system.ruby.L1Cache_Controller.I.L1_Replacement::total       848414                      
system.ruby.L1Cache_Controller.I.Load    |        3567     12.64%     12.64% |        3531     12.52%     25.16% |        3529     12.51%     37.67% |        3513     12.45%     50.12% |        3555     12.60%     62.73% |        3535     12.53%     75.26% |        3522     12.48%     87.74% |        3458     12.26%    100.00%
system.ruby.L1Cache_Controller.I.Load::total        28210                      
system.ruby.L1Cache_Controller.I.Store   |       28030     12.56%     12.56% |       27887     12.50%     25.07% |       27888     12.50%     37.57% |       27588     12.37%     49.93% |       27764     12.45%     62.38% |       27733     12.43%     74.81% |       28223     12.65%     87.46% |       27968     12.54%    100.00%
system.ruby.L1Cache_Controller.I.Store::total       223081                      
system.ruby.L1Cache_Controller.IM.Ack    |        2767     12.91%     12.91% |        2657     12.39%     25.30% |        2639     12.31%     37.61% |        2683     12.52%     50.13% |        2664     12.43%     62.55% |        2615     12.20%     74.75% |        2694     12.57%     87.32% |        2719     12.68%    100.00%
system.ruby.L1Cache_Controller.IM.Ack::total        21438                      
system.ruby.L1Cache_Controller.IM.Data   |        7300     12.44%     12.44% |        7370     12.56%     25.00% |        7293     12.43%     37.42% |        7335     12.50%     49.92% |        7237     12.33%     62.25% |        7265     12.38%     74.63% |        7425     12.65%     87.28% |        7466     12.72%    100.00%
system.ruby.L1Cache_Controller.IM.Data::total        58691                      
system.ruby.L1Cache_Controller.IM.Data_all_Acks |      232612     12.52%     12.52% |      232182     12.49%     25.01% |      232305     12.50%     37.51% |      232131     12.49%     50.00% |      232306     12.50%     62.51% |      231801     12.47%     74.98% |      232592     12.52%     87.50% |      232360     12.50%    100.00%
system.ruby.L1Cache_Controller.IM.Data_all_Acks::total      1858289                      
system.ruby.L1Cache_Controller.IM.Inv    |         125     13.80%     13.80% |         104     11.48%     25.28% |         105     11.59%     36.87% |         128     14.13%     50.99% |         113     12.47%     63.47% |         105     11.59%     75.06% |         113     12.47%     87.53% |         113     12.47%    100.00%
system.ruby.L1Cache_Controller.IM.Inv::total          906                      
system.ruby.L1Cache_Controller.IM.L1_Replacement |     2380057     12.52%     12.52% |     2374343     12.49%     25.01% |     2378018     12.51%     37.51% |     2376591     12.50%     50.01% |     2376269     12.50%     62.51% |     2373394     12.48%     74.99% |     2378283     12.51%     87.50% |     2376789     12.50%    100.00%
system.ruby.L1Cache_Controller.IM.L1_Replacement::total     19013744                      
system.ruby.L1Cache_Controller.IS.DataS_fromL1 |        9762     12.59%     12.59% |        9538     12.30%     24.90% |        9645     12.44%     37.34% |        9809     12.65%     49.99% |        9669     12.47%     62.47% |        9656     12.46%     74.93% |        9696     12.51%     87.43% |        9741     12.57%    100.00%
system.ruby.L1Cache_Controller.IS.DataS_fromL1::total        77516                      
system.ruby.L1Cache_Controller.IS.Data_Exclusive |       23372     12.46%     12.46% |       23511     12.54%     25.00% |       23607     12.59%     37.59% |       23335     12.44%     50.03% |       23460     12.51%     62.54% |       23362     12.46%     75.00% |       23477     12.52%     87.52% |       23412     12.48%    100.00%
system.ruby.L1Cache_Controller.IS.Data_Exclusive::total       187536                      
system.ruby.L1Cache_Controller.IS.Data_all_Acks |       18682     12.44%     12.44% |       19012     12.66%     25.09% |       18689     12.44%     37.53% |       18745     12.48%     50.01% |       18857     12.55%     62.56% |       18792     12.51%     75.07% |       18827     12.53%     87.60% |       18621     12.40%    100.00%
system.ruby.L1Cache_Controller.IS.Data_all_Acks::total       150225                      
system.ruby.L1Cache_Controller.IS.Inv    |        9171     12.60%     12.60% |        9125     12.53%     25.13% |        9164     12.59%     37.71% |        9065     12.45%     50.16% |        9050     12.43%     62.59% |        9172     12.60%     75.19% |        9005     12.37%     87.56% |        9058     12.44%    100.00%
system.ruby.L1Cache_Controller.IS.Inv::total        72810                      
system.ruby.L1Cache_Controller.IS.L1_Replacement |      297257     12.51%     12.51% |      298205     12.55%     25.06% |      298119     12.55%     37.60% |      296423     12.47%     50.08% |      295545     12.44%     62.52% |      297014     12.50%     75.02% |      297294     12.51%     87.53% |      296410     12.47%    100.00%
system.ruby.L1Cache_Controller.IS.L1_Replacement::total      2376267                      
system.ruby.L1Cache_Controller.IS_I.DataS_fromL1 |          37     13.31%     13.31% |          21      7.55%     20.86% |          27      9.71%     30.58% |          48     17.27%     47.84% |          42     15.11%     62.95% |          42     15.11%     78.06% |          24      8.63%     86.69% |          37     13.31%    100.00%
system.ruby.L1Cache_Controller.IS_I.DataS_fromL1::total          278                      
system.ruby.L1Cache_Controller.IS_I.Data_all_Acks |        9134     12.59%     12.59% |        9104     12.55%     25.14% |        9137     12.60%     37.74% |        9017     12.43%     50.17% |        9008     12.42%     62.59% |        9130     12.59%     75.18% |        8981     12.38%     87.56% |        9021     12.44%    100.00%
system.ruby.L1Cache_Controller.IS_I.Data_all_Acks::total        72532                      
system.ruby.L1Cache_Controller.IS_I.Inv  |           1     10.00%     10.00% |           0      0.00%     10.00% |           0      0.00%     10.00% |           0      0.00%     10.00% |           6     60.00%     70.00% |           1     10.00%     80.00% |           1     10.00%     90.00% |           1     10.00%    100.00%
system.ruby.L1Cache_Controller.IS_I.Inv::total           10                      
system.ruby.L1Cache_Controller.IS_I.L1_Replacement |          75     13.79%     13.79% |          59     10.85%     24.63% |          23      4.23%     28.86% |          88     16.18%     45.04% |          63     11.58%     56.62% |          91     16.73%     73.35% |          86     15.81%     89.15% |          59     10.85%    100.00%
system.ruby.L1Cache_Controller.IS_I.L1_Replacement::total          544                      
system.ruby.L1Cache_Controller.Ifetch    |       33069     12.52%     12.52% |       33105     12.53%     25.05% |       32943     12.47%     37.52% |       33024     12.50%     50.03% |       33064     12.52%     62.55% |       32971     12.48%     75.03% |       33099     12.53%     87.56% |       32861     12.44%    100.00%
system.ruby.L1Cache_Controller.Ifetch::total       264136                      
system.ruby.L1Cache_Controller.Inv       |      241686     12.49%     12.49% |      242027     12.51%     25.01% |      242100     12.52%     37.52% |      241862     12.50%     50.03% |      241718     12.50%     62.52% |      241433     12.48%     75.00% |      241864     12.50%     87.51% |      241683     12.49%    100.00%
system.ruby.L1Cache_Controller.Inv::total      1934373                      
system.ruby.L1Cache_Controller.L1_Replacement |     2946327     12.52%     12.52% |     2941616     12.50%     25.01% |     2945031     12.51%     37.52% |     2942007     12.50%     50.02% |     2940723     12.49%     62.51% |     2938814     12.48%     74.99% |     2944519     12.51%     87.50% |     2942126     12.50%    100.00%
system.ruby.L1Cache_Controller.L1_Replacement::total     23541163                      
system.ruby.L1Cache_Controller.Load      |       31205     12.49%     12.49% |       31260     12.52%     25.01% |       31393     12.57%     37.58% |       31164     12.48%     50.06% |       31207     12.50%     62.55% |       31230     12.50%     75.06% |       31131     12.46%     87.52% |       31159     12.48%    100.00%
system.ruby.L1Cache_Controller.Load::total       249749                      
system.ruby.L1Cache_Controller.M.Fwd_GETS |        3854     12.39%     12.39% |        3923     12.61%     25.00% |        3861     12.41%     37.41% |        3883     12.48%     49.89% |        3886     12.49%     62.38% |        3939     12.66%     75.04% |        3923     12.61%     87.65% |        3842     12.35%    100.00%
system.ruby.L1Cache_Controller.M.Fwd_GETS::total        31111                      
system.ruby.L1Cache_Controller.M.Fwd_GETX |       31343     12.61%     12.61% |       30906     12.44%     25.05% |       31050     12.49%     37.54% |       30846     12.41%     49.95% |       30927     12.44%     62.39% |       30886     12.43%     74.82% |       31373     12.62%     87.44% |       31205     12.56%    100.00%
system.ruby.L1Cache_Controller.M.Fwd_GETX::total       248536                      
system.ruby.L1Cache_Controller.M.Fwd_GET_INSTR |        4115     12.42%     12.42% |        4190     12.65%     25.07% |        4109     12.40%     37.48% |        4076     12.30%     49.78% |        4137     12.49%     62.27% |        4142     12.50%     74.77% |        4127     12.46%     87.23% |        4229     12.77%    100.00%
system.ruby.L1Cache_Controller.M.Fwd_GET_INSTR::total        33125                      
system.ruby.L1Cache_Controller.M.Inv     |       59946     12.52%     12.52% |       59641     12.46%     24.99% |       59875     12.51%     37.50% |       60056     12.55%     50.04% |       59612     12.46%     62.50% |       59670     12.47%     74.97% |       59848     12.50%     87.47% |       59967     12.53%    100.00%
system.ruby.L1Cache_Controller.M.Inv::total       478615                      
system.ruby.L1Cache_Controller.M.L1_Replacement |      142230     12.50%     12.50% |      142414     12.52%     25.02% |      142152     12.49%     37.51% |      142059     12.49%     50.00% |      142501     12.52%     62.52% |      142006     12.48%     75.01% |      142264     12.50%     87.51% |      142113     12.49%    100.00%
system.ruby.L1Cache_Controller.M.L1_Replacement::total      1137739                      
system.ruby.L1Cache_Controller.M.Load    |        1149     12.39%     12.39% |        1201     12.95%     25.34% |        1210     13.05%     38.39% |        1141     12.30%     50.69% |        1102     11.88%     62.57% |        1139     12.28%     74.85% |        1145     12.35%     87.20% |        1187     12.80%    100.00%
system.ruby.L1Cache_Controller.M.Load::total         9274                      
system.ruby.L1Cache_Controller.M.Store   |        8996     12.62%     12.62% |        8798     12.34%     24.96% |        8953     12.56%     37.52% |        8963     12.57%     50.10% |        8725     12.24%     62.34% |        8927     12.52%     74.86% |        8898     12.48%     87.34% |        9022     12.66%    100.00%
system.ruby.L1Cache_Controller.M.Store::total        71282                      
system.ruby.L1Cache_Controller.M_I.Fwd_GETS |         844     12.43%     12.43% |         861     12.68%     25.11% |         839     12.35%     37.46% |         832     12.25%     49.71% |         853     12.56%     62.27% |         869     12.80%     75.07% |         865     12.74%     87.81% |         828     12.19%    100.00%
system.ruby.L1Cache_Controller.M_I.Fwd_GETS::total         6791                      
system.ruby.L1Cache_Controller.M_I.Fwd_GETX |        7408     12.31%     12.31% |        7595     12.62%     24.93% |        7405     12.31%     37.24% |        7606     12.64%     49.88% |        7431     12.35%     62.23% |        7547     12.54%     74.77% |        7667     12.74%     87.51% |        7516     12.49%    100.00%
system.ruby.L1Cache_Controller.M_I.Fwd_GETX::total        60175                      
system.ruby.L1Cache_Controller.M_I.Fwd_GET_INSTR |         801     12.56%     12.56% |         811     12.72%     25.27% |         817     12.81%     38.08% |         799     12.53%     50.61% |         806     12.64%     63.25% |         807     12.65%     75.90% |         719     11.27%     87.17% |         818     12.83%    100.00%
system.ruby.L1Cache_Controller.M_I.Fwd_GET_INSTR::total         6378                      
system.ruby.L1Cache_Controller.M_I.Ifetch |        1405     12.97%     12.97% |        1283     11.85%     24.82% |        1341     12.38%     37.20% |        1357     12.53%     49.73% |        1425     13.16%     62.88% |        1368     12.63%     75.51% |        1367     12.62%     88.14% |        1285     11.86%    100.00%
system.ruby.L1Cache_Controller.M_I.Ifetch::total        10831                      
system.ruby.L1Cache_Controller.M_I.Inv   |      130943     12.48%     12.48% |      131248     12.51%     24.99% |      131427     12.53%     37.52% |      131098     12.50%     50.01% |      131285     12.51%     62.53% |      130867     12.47%     75.00% |      131295     12.51%     87.52% |      130962     12.48%    100.00%
system.ruby.L1Cache_Controller.M_I.Inv::total      1049125                      
system.ruby.L1Cache_Controller.M_I.WB_Ack |       18658     12.60%     12.60% |       18468     12.47%     25.07% |       18406     12.43%     37.50% |       18368     12.41%     49.91% |       18747     12.66%     62.57% |       18477     12.48%     75.05% |       18429     12.45%     87.50% |       18516     12.50%    100.00%
system.ruby.L1Cache_Controller.M_I.WB_Ack::total       148069                      
system.ruby.L1Cache_Controller.NP.Ifetch |       30521     12.51%     12.51% |       30677     12.57%     25.08% |       30419     12.47%     37.55% |       30518     12.51%     50.05% |       30503     12.50%     62.55% |       30419     12.47%     75.02% |       30563     12.53%     87.55% |       30388     12.45%    100.00%
system.ruby.L1Cache_Controller.NP.Ifetch::total       244008                      
system.ruby.L1Cache_Controller.NP.Inv    |        2932     12.75%     12.75% |        2879     12.52%     25.27% |        2816     12.25%     37.52% |        2840     12.35%     49.87% |        2895     12.59%     62.46% |        2916     12.68%     75.14% |        2873     12.50%     87.64% |        2842     12.36%    100.00%
system.ruby.L1Cache_Controller.NP.Inv::total        22993                      
system.ruby.L1Cache_Controller.NP.Load   |       26284     12.47%     12.47% |       26339     12.50%     24.96% |       26497     12.57%     37.53% |       26307     12.48%     50.01% |       26357     12.50%     62.52% |       26375     12.51%     75.03% |       26300     12.48%     87.51% |       26332     12.49%    100.00%
system.ruby.L1Cache_Controller.NP.Load::total       210791                      
system.ruby.L1Cache_Controller.NP.Store  |      211722     12.51%     12.51% |      211482     12.49%     25.00% |      211553     12.50%     37.50% |      211707     12.51%     50.01% |      211607     12.50%     62.51% |      211152     12.48%     74.99% |      211642     12.50%     87.49% |      211703     12.51%    100.00%
system.ruby.L1Cache_Controller.NP.Store::total      1692568                      
system.ruby.L1Cache_Controller.S.Ifetch  |         141     12.06%     12.06% |         130     11.12%     23.18% |         146     12.49%     35.67% |         140     11.98%     47.65% |         139     11.89%     59.54% |         152     13.00%     72.54% |         153     13.09%     85.63% |         168     14.37%    100.00%
system.ruby.L1Cache_Controller.S.Ifetch::total         1169                      
system.ruby.L1Cache_Controller.S.Inv     |       31186     12.40%     12.40% |       31601     12.56%     24.96% |       31367     12.47%     37.43% |       31539     12.54%     49.97% |       31444     12.50%     62.47% |       31446     12.50%     74.97% |       31558     12.55%     87.51% |       31409     12.49%    100.00%
system.ruby.L1Cache_Controller.S.Inv::total       251550                      
system.ruby.L1Cache_Controller.S.L1_Replacement |        3644     12.84%     12.84% |        3518     12.40%     25.24% |        3512     12.38%     37.61% |        3529     12.44%     50.05% |        3600     12.69%     62.74% |        3501     12.34%     75.07% |        3534     12.45%     87.53% |        3539     12.47%    100.00%
system.ruby.L1Cache_Controller.S.L1_Replacement::total        28377                      
system.ruby.L1Cache_Controller.S.Load    |         194     13.83%     13.83% |         181     12.90%     26.73% |         148     10.55%     37.28% |         196     13.97%     51.25% |         185     13.19%     64.43% |         172     12.26%     76.69% |         150     10.69%     87.38% |         177     12.62%    100.00%
system.ruby.L1Cache_Controller.S.Load::total         1403                      
system.ruby.L1Cache_Controller.S.Store   |        1628     13.09%     13.09% |        1595     12.82%     25.91% |        1467     11.79%     37.71% |        1496     12.03%     49.73% |        1552     12.48%     62.21% |        1634     13.14%     75.35% |        1534     12.33%     87.68% |        1532     12.32%    100.00%
system.ruby.L1Cache_Controller.S.Store::total        12438                      
system.ruby.L1Cache_Controller.SINK_WB_ACK.Ifetch |         386     12.66%     12.66% |         376     12.34%     25.00% |         377     12.37%     37.37% |         393     12.89%     50.26% |         376     12.34%     62.60% |         378     12.40%     75.00% |         396     12.99%     87.99% |         366     12.01%    100.00%
system.ruby.L1Cache_Controller.SINK_WB_ACK.Ifetch::total         3048                      
system.ruby.L1Cache_Controller.SINK_WB_ACK.Inv |         976     12.49%     12.49% |         982     12.57%     25.06% |         995     12.74%     37.80% |         946     12.11%     49.91% |        1015     12.99%     62.90% |         974     12.47%     75.37% |         931     11.92%     87.29% |         993     12.71%    100.00%
system.ruby.L1Cache_Controller.SINK_WB_ACK.Inv::total         7812                      
system.ruby.L1Cache_Controller.SINK_WB_ACK.Load |           0      0.00%      0.00% |           1     25.00%     25.00% |           0      0.00%     25.00% |           0      0.00%     25.00% |           0      0.00%     25.00% |           0      0.00%     25.00% |           2     50.00%     75.00% |           1     25.00%    100.00%
system.ruby.L1Cache_Controller.SINK_WB_ACK.Load::total            4                      
system.ruby.L1Cache_Controller.SINK_WB_ACK.Store |           6     17.65%     17.65% |           6     17.65%     35.29% |           1      2.94%     38.24% |           7     20.59%     58.82% |           3      8.82%     67.65% |           2      5.88%     73.53% |           6     17.65%     91.18% |           3      8.82%    100.00%
system.ruby.L1Cache_Controller.SINK_WB_ACK.Store::total           34                      
system.ruby.L1Cache_Controller.SINK_WB_ACK.WB_Ack |      139994     12.47%     12.47% |      140515     12.52%     24.99% |      140487     12.52%     37.51% |      140335     12.50%     50.01% |      140374     12.51%     62.51% |      140089     12.48%     75.00% |      140545     12.52%     87.52% |      140123     12.48%    100.00%
system.ruby.L1Cache_Controller.SINK_WB_ACK.WB_Ack::total      1122462                      
system.ruby.L1Cache_Controller.SM.Ack    |        6491     12.61%     12.61% |        6546     12.71%     25.32% |        6234     12.11%     37.43% |        6321     12.28%     49.71% |        6396     12.42%     62.13% |        6380     12.39%     74.52% |        6584     12.79%     87.31% |        6533     12.69%    100.00%
system.ruby.L1Cache_Controller.SM.Ack::total        51485                      
system.ruby.L1Cache_Controller.SM.Ack_all |        8767     12.56%     12.56% |        8780     12.58%     25.14% |        8601     12.32%     37.47% |        8658     12.41%     49.88% |        8615     12.35%     62.22% |        8718     12.49%     74.71% |        8805     12.62%     87.33% |        8841     12.67%    100.00%
system.ruby.L1Cache_Controller.SM.Ack_all::total        69785                      
system.ruby.L1Cache_Controller.SM.Inv    |         161     11.98%     11.98% |         185     13.76%     25.74% |         159     11.83%     37.57% |         173     12.87%     50.45% |         174     12.95%     63.39% |         181     13.47%     76.86% |         154     11.46%     88.32% |         157     11.68%    100.00%
system.ruby.L1Cache_Controller.SM.Inv::total         1344                      
system.ruby.L1Cache_Controller.SM.L1_Replacement |         416     12.69%     12.69% |         516     15.74%     28.42% |         406     12.38%     40.81% |         378     11.53%     52.33% |         384     11.71%     64.04% |         373     11.38%     75.42% |         356     10.86%     86.28% |         450     13.72%    100.00%
system.ruby.L1Cache_Controller.SM.L1_Replacement::total         3279                      
system.ruby.L1Cache_Controller.Store     |      250491     12.52%     12.52% |      249880     12.49%     25.01% |      250003     12.50%     37.51% |      249892     12.49%     50.00% |      249793     12.49%     62.49% |      249574     12.48%     74.96% |      250441     12.52%     87.48% |      250383     12.52%    100.00%
system.ruby.L1Cache_Controller.Store::total      2000457                      
system.ruby.L1Cache_Controller.WB_Ack    |      158652     12.49%     12.49% |      158983     12.51%     25.00% |      158893     12.51%     37.51% |      158703     12.49%     50.00% |      159121     12.52%     62.52% |      158566     12.48%     75.00% |      158974     12.51%     87.51% |      158639     12.49%    100.00%
system.ruby.L1Cache_Controller.WB_Ack::total      1270531                      
system.ruby.L2Cache_Controller.Ack              25435      0.00%      0.00%
system.ruby.L2Cache_Controller.Ack_all         249584      0.00%      0.00%
system.ruby.L2Cache_Controller.Exclusive_Unblock      2115610      0.00%      0.00%
system.ruby.L2Cache_Controller.IM.L1_GETS        13021      0.00%      0.00%
system.ruby.L2Cache_Controller.IM.L1_GETX       104066      0.00%      0.00%
system.ruby.L2Cache_Controller.IM.L1_GET_INSTR        12487      0.00%      0.00%
system.ruby.L2Cache_Controller.IM.L1_PUTX_old        26193      0.00%      0.00%
system.ruby.L2Cache_Controller.IM.L2_Replacement_clean     17765253      0.00%      0.00%
system.ruby.L2Cache_Controller.IM.Mem_Data      1504224      0.00%      0.00%
system.ruby.L2Cache_Controller.IS.L1_GETS         1625      0.00%      0.00%
system.ruby.L2Cache_Controller.IS.L1_GETX        13157      0.00%      0.00%
system.ruby.L2Cache_Controller.IS.L1_GET_INSTR         1576      0.00%      0.00%
system.ruby.L2Cache_Controller.IS.L1_PUTX_old         4341      0.00%      0.00%
system.ruby.L2Cache_Controller.IS.L2_Replacement_clean      2431287      0.00%      0.00%
system.ruby.L2Cache_Controller.IS.Mem_Data       191735      0.00%      0.00%
system.ruby.L2Cache_Controller.ISS.L1_GETS         1605      0.00%      0.00%
system.ruby.L2Cache_Controller.ISS.L1_GETX        13290      0.00%      0.00%
system.ruby.L2Cache_Controller.ISS.L1_GET_INSTR         1547      0.00%      0.00%
system.ruby.L2Cache_Controller.ISS.L1_PUTX_old         2967      0.00%      0.00%
system.ruby.L2Cache_Controller.ISS.L2_Replacement_clean      2178978      0.00%      0.00%
system.ruby.L2Cache_Controller.ISS.Mem_Data       183664      0.00%      0.00%
system.ruby.L2Cache_Controller.I_I.Ack           6329      0.00%      0.00%
system.ruby.L2Cache_Controller.I_I.Ack_all       181389      0.00%      0.00%
system.ruby.L2Cache_Controller.I_I.L1_GETX          198      0.00%      0.00%
system.ruby.L2Cache_Controller.L1_GETS         257906      0.00%      0.00%
system.ruby.L2Cache_Controller.L1_GETX        2097004      0.00%      0.00%
system.ruby.L2Cache_Controller.L1_GET_INSTR       268730      0.00%      0.00%
system.ruby.L2Cache_Controller.L1_PUTX         262221      0.00%      0.00%
system.ruby.L2Cache_Controller.L1_PUTX_old      1456529      0.00%      0.00%
system.ruby.L2Cache_Controller.L1_UPGRADE        13122      0.00%      0.00%
system.ruby.L2Cache_Controller.L2_Replacement       188777      0.00%      0.00%
system.ruby.L2Cache_Controller.L2_Replacement_clean     35846031      0.00%      0.00%
system.ruby.L2Cache_Controller.M.L1_GETS         3872      0.00%      0.00%
system.ruby.L2Cache_Controller.M.L1_GETX        31632      0.00%      0.00%
system.ruby.L2Cache_Controller.M.L1_GET_INSTR        10269      0.00%      0.00%
system.ruby.L2Cache_Controller.M.L1_PUTX_old          113      0.00%      0.00%
system.ruby.L2Cache_Controller.M.L2_Replacement        91489      0.00%      0.00%
system.ruby.L2Cache_Controller.M.L2_Replacement_clean        10807      0.00%      0.00%
system.ruby.L2Cache_Controller.MCT_I.Ack_all        48901      0.00%      0.00%
system.ruby.L2Cache_Controller.MCT_I.L1_GETS          400      0.00%      0.00%
system.ruby.L2Cache_Controller.MCT_I.L1_GETX         3341      0.00%      0.00%
system.ruby.L2Cache_Controller.MCT_I.L1_GET_INSTR          283      0.00%      0.00%
system.ruby.L2Cache_Controller.MCT_I.L1_PUTX_old         4009      0.00%      0.00%
system.ruby.L2Cache_Controller.MCT_I.WB_Data      1413554      0.00%      0.00%
system.ruby.L2Cache_Controller.MCT_I.WB_Data_clean       113327      0.00%      0.00%
system.ruby.L2Cache_Controller.MT.L1_GETS        38071      0.00%      0.00%
system.ruby.L2Cache_Controller.MT.L1_GETX       313033      0.00%      0.00%
system.ruby.L2Cache_Controller.MT.L1_GET_INSTR        39723      0.00%      0.00%
system.ruby.L2Cache_Controller.MT.L1_PUTX       148069      0.00%      0.00%
system.ruby.L2Cache_Controller.MT.L1_PUTX_old        32476      0.00%      0.00%
system.ruby.L2Cache_Controller.MT.L2_Replacement          930      0.00%      0.00%
system.ruby.L2Cache_Controller.MT.L2_Replacement_clean      1575782      0.00%      0.00%
system.ruby.L2Cache_Controller.MT_I.Ack_all           71      0.00%      0.00%
system.ruby.L2Cache_Controller.MT_I.L1_PUTX_old            1      0.00%      0.00%
system.ruby.L2Cache_Controller.MT_I.WB_Data          848      0.00%      0.00%
system.ruby.L2Cache_Controller.MT_I.WB_Data_clean           11      0.00%      0.00%
system.ruby.L2Cache_Controller.MT_IB.L1_GETS           69      0.00%      0.00%
system.ruby.L2Cache_Controller.MT_IB.L1_GETX          628      0.00%      0.00%
system.ruby.L2Cache_Controller.MT_IB.L1_GET_INSTR          103      0.00%      0.00%
system.ruby.L2Cache_Controller.MT_IB.L1_PUTX          321      0.00%      0.00%
system.ruby.L2Cache_Controller.MT_IB.L1_UPGRADE          294      0.00%      0.00%
system.ruby.L2Cache_Controller.MT_IB.L2_Replacement_clean        14045      0.00%      0.00%
system.ruby.L2Cache_Controller.MT_IB.WB_Data        19715      0.00%      0.00%
system.ruby.L2Cache_Controller.MT_IB.WB_Data_clean          113      0.00%      0.00%
system.ruby.L2Cache_Controller.MT_IIB.L1_GETS          499      0.00%      0.00%
system.ruby.L2Cache_Controller.MT_IIB.L1_GETX         4253      0.00%      0.00%
system.ruby.L2Cache_Controller.MT_IIB.L1_GET_INSTR          560      0.00%      0.00%
system.ruby.L2Cache_Controller.MT_IIB.L1_PUTX        10772      0.00%      0.00%
system.ruby.L2Cache_Controller.MT_IIB.L1_PUTX_old          134      0.00%      0.00%
system.ruby.L2Cache_Controller.MT_IIB.L1_UPGRADE          254      0.00%      0.00%
system.ruby.L2Cache_Controller.MT_IIB.L2_Replacement          112      0.00%      0.00%
system.ruby.L2Cache_Controller.MT_IIB.L2_Replacement_clean       235436      0.00%      0.00%
system.ruby.L2Cache_Controller.MT_IIB.Unblock        19828      0.00%      0.00%
system.ruby.L2Cache_Controller.MT_IIB.WB_Data        57652      0.00%      0.00%
system.ruby.L2Cache_Controller.MT_IIB.WB_Data_clean          314      0.00%      0.00%
system.ruby.L2Cache_Controller.MT_MB.Exclusive_Unblock      2036425      0.00%      0.00%
system.ruby.L2Cache_Controller.MT_MB.L1_GETS         3417      0.00%      0.00%
system.ruby.L2Cache_Controller.MT_MB.L1_GETX        27559      0.00%      0.00%
system.ruby.L2Cache_Controller.MT_MB.L1_GET_INSTR         4515      0.00%      0.00%
system.ruby.L2Cache_Controller.MT_MB.L1_PUTX        95025      0.00%      0.00%
system.ruby.L2Cache_Controller.MT_MB.L1_PUTX_old       337419      0.00%      0.00%
system.ruby.L2Cache_Controller.MT_MB.L2_Replacement        10344      0.00%      0.00%
system.ruby.L2Cache_Controller.MT_MB.L2_Replacement_clean     11302730      0.00%      0.00%
system.ruby.L2Cache_Controller.MT_SB.L1_GETS          288      0.00%      0.00%
system.ruby.L2Cache_Controller.MT_SB.L1_GETX         2712      0.00%      0.00%
system.ruby.L2Cache_Controller.MT_SB.L1_GET_INSTR          344      0.00%      0.00%
system.ruby.L2Cache_Controller.MT_SB.L1_PUTX         1213      0.00%      0.00%
system.ruby.L2Cache_Controller.MT_SB.L1_UPGRADE          324      0.00%      0.00%
system.ruby.L2Cache_Controller.MT_SB.L2_Replacement        62826      0.00%      0.00%
system.ruby.L2Cache_Controller.MT_SB.L2_Replacement_clean          108      0.00%      0.00%
system.ruby.L2Cache_Controller.MT_SB.Unblock        57966      0.00%      0.00%
system.ruby.L2Cache_Controller.M_I.L1_GETS          211      0.00%      0.00%
system.ruby.L2Cache_Controller.M_I.L1_GETX         2123      0.00%      0.00%
system.ruby.L2Cache_Controller.M_I.L1_GET_INSTR          212      0.00%      0.00%
system.ruby.L2Cache_Controller.M_I.L1_PUTX_old         3317      0.00%      0.00%
system.ruby.L2Cache_Controller.M_I.Mem_Ack      1879619      0.00%      0.00%
system.ruby.L2Cache_Controller.Mem_Ack        1879619      0.00%      0.00%
system.ruby.L2Cache_Controller.Mem_Data       1879623      0.00%      0.00%
system.ruby.L2Cache_Controller.NP.L1_GETS       186816      0.00%      0.00%
system.ruby.L2Cache_Controller.NP.L1_GETX      1504226      0.00%      0.00%
system.ruby.L2Cache_Controller.NP.L1_GET_INSTR       188583      0.00%      0.00%
system.ruby.L2Cache_Controller.NP.L1_PUTX_old      1044712      0.00%      0.00%
system.ruby.L2Cache_Controller.SS.L1_GETS         7010      0.00%      0.00%
system.ruby.L2Cache_Controller.SS.L1_GETX        68091      0.00%      0.00%
system.ruby.L2Cache_Controller.SS.L1_GET_INSTR         7390      0.00%      0.00%
system.ruby.L2Cache_Controller.SS.L1_PUTX         6658      0.00%      0.00%
system.ruby.L2Cache_Controller.SS.L1_PUTX_old          114      0.00%      0.00%
system.ruby.L2Cache_Controller.SS.L1_UPGRADE        11094      0.00%      0.00%
system.ruby.L2Cache_Controller.SS.L2_Replacement        19223      0.00%      0.00%
system.ruby.L2Cache_Controller.SS.L2_Replacement_clean       181390      0.00%      0.00%
system.ruby.L2Cache_Controller.SS_MB.Exclusive_Unblock        79185      0.00%      0.00%
system.ruby.L2Cache_Controller.SS_MB.L1_GETS         1002      0.00%      0.00%
system.ruby.L2Cache_Controller.SS_MB.L1_GETX         8693      0.00%      0.00%
system.ruby.L2Cache_Controller.SS_MB.L1_GET_INSTR         1138      0.00%      0.00%
system.ruby.L2Cache_Controller.SS_MB.L1_PUTX          163      0.00%      0.00%
system.ruby.L2Cache_Controller.SS_MB.L1_PUTX_old          695      0.00%      0.00%
system.ruby.L2Cache_Controller.SS_MB.L1_UPGRADE         1156      0.00%      0.00%
system.ruby.L2Cache_Controller.SS_MB.L2_Replacement         3853      0.00%      0.00%
system.ruby.L2Cache_Controller.SS_MB.L2_Replacement_clean       150215      0.00%      0.00%
system.ruby.L2Cache_Controller.S_I.Ack          19106      0.00%      0.00%
system.ruby.L2Cache_Controller.S_I.Ack_all        19223      0.00%      0.00%
system.ruby.L2Cache_Controller.S_I.L1_GETX            2      0.00%      0.00%
[...]
system.ruby.network.routers09.msg_bytes.Control::0     15037000                      
system.ruby.network.routers09.msg_bytes.Response_Control::1     17872336                      
system.ruby.network.routers09.msg_bytes.Response_Data::1    245147040                      
system.ruby.network.routers09.msg_count.Control::0      1879625                      
system.ruby.network.routers09.msg_count.Response_Control::1      2234042                      
system.ruby.network.routers09.msg_count.Response_Data::1      3404820                      
system.ruby.network.routers09.percent_links_utilized     1.469467                      
system.ruby.network.routers09.port_buffers00.avg_buf_msgs     0.059314                       # Average number of messages in buffer
system.ruby.network.routers09.port_buffers00.avg_stall_time   108.995989                       # Average number of cycles messages are stalled in this MB
system.ruby.network.routers09.port_buffers01.avg_buf_msgs     0.058484                       # Average number of messages in buffer
system.ruby.network.routers09.port_buffers01.avg_stall_time   102.874346                       # Average number of cycles messages are stalled in this MB
system.ruby.network.routers09.port_buffers03.avg_buf_msgs     0.133405                       # Average number of messages in buffer
system.ruby.network.routers09.port_buffers03.avg_stall_time    31.525553                       # Average number of cycles messages are stalled in this MB
system.ruby.network.routers09.pwrStateResidencyTicks::UNDEFINED    591320721                       # Cumulative time (in ticks) in various power states
system.ruby.network.routers09.throttle0.link_utilization     1.349590                      
system.ruby.network.routers09.throttle0.msg_bytes.Control::0     15037000                      
system.ruby.network.routers09.throttle0.msg_bytes.Response_Control::1      2835384                      
system.ruby.network.routers09.throttle0.msg_bytes.Response_Data::1    109814112                      
system.ruby.network.routers09.throttle0.msg_count.Control::0      1879625                      
system.ruby.network.routers09.throttle0.msg_count.Response_Control::1       354423                      
system.ruby.network.routers09.throttle0.msg_count.Response_Data::1      1525196                      
system.ruby.network.routers09.throttle1.link_utilization     1.589344                      
system.ruby.network.routers09.throttle1.msg_bytes.Response_Control::1     15036952                      
system.ruby.network.routers09.throttle1.msg_bytes.Response_Data::1    135332928                      
system.ruby.network.routers09.throttle1.msg_count.Response_Control::1      1879619                      
system.ruby.network.routers09.throttle1.msg_count.Response_Data::1      1879624                      
system.ruby.network.routers10.msg_bytes.Control::0     34366408                      
system.ruby.network.routers10.msg_bytes.Request_Control::2     18601600                      
system.ruby.network.routers10.msg_bytes.Response_Control::1     31378416                      
system.ruby.network.routers10.msg_bytes.Response_Control::2     17547232                      
system.ruby.network.routers10.msg_bytes.Response_Data::1    423912960                      
system.ruby.network.routers10.msg_bytes.Writeback_Control::0      1062392                      
system.ruby.network.routers10.msg_bytes.Writeback_Data::0     81917208                      
system.ruby.network.routers10.msg_bytes.Writeback_Data::1    109997280                      
system.ruby.network.routers10.msg_count.Control::0      4295801                      
system.ruby.network.routers10.msg_count.Request_Control::2      2325200                      
system.ruby.network.routers10.msg_count.Response_Control::1      3922302                      
system.ruby.network.routers10.msg_count.Response_Control::2      2193404                      
system.ruby.network.routers10.msg_count.Response_Data::1      5887680                      
system.ruby.network.routers10.msg_count.Writeback_Control::0       132799                      
system.ruby.network.routers10.msg_count.Writeback_Data::0      1137739                      
system.ruby.network.routers10.msg_count.Writeback_Data::1      1527740                      
system.ruby.network.routers10.percent_links_utilized     0.759723                      
system.ruby.network.routers10.port_buffers01.avg_buf_msgs     0.014280                       # Average number of messages in buffer
system.ruby.network.routers10.port_buffers01.avg_stall_time    79.884835                       # Average number of cycles messages are stalled in this MB
system.ruby.network.routers10.port_buffers02.avg_buf_msgs     0.008234                       # Average number of messages in buffer
system.ruby.network.routers10.port_buffers02.avg_stall_time    70.978366                       # Average number of cycles messages are stalled in this MB
system.ruby.network.routers10.port_buffers04.avg_buf_msgs     0.014329                       # Average number of messages in buffer
system.ruby.network.routers10.port_buffers04.avg_stall_time    80.135553                       # Average number of cycles messages are stalled in this MB
system.ruby.network.routers10.port_buffers05.avg_buf_msgs     0.008298                       # Average number of messages in buffer
system.ruby.network.routers10.port_buffers05.avg_stall_time    70.991179                       # Average number of cycles messages are stalled in this MB
system.ruby.network.routers10.port_buffers07.avg_buf_msgs     0.014199                       # Average number of messages in buffer
system.ruby.network.routers10.port_buffers07.avg_stall_time    80.108235                       # Average number of cycles messages are stalled in this MB
system.ruby.network.routers10.port_buffers08.avg_buf_msgs     0.008297                       # Average number of messages in buffer
system.ruby.network.routers10.port_buffers08.avg_stall_time    71.149118                       # Average number of cycles messages are stalled in this MB
system.ruby.network.routers10.port_buffers10.avg_buf_msgs     0.014283                       # Average number of messages in buffer
system.ruby.network.routers10.port_buffers10.avg_stall_time    80.165128                       # Average number of cycles messages are stalled in this MB
system.ruby.network.routers10.port_buffers11.avg_buf_msgs     0.008227                       # Average number of messages in buffer
system.ruby.network.routers10.port_buffers11.avg_stall_time    70.960072                       # Average number of cycles messages are stalled in this MB
system.ruby.network.routers10.port_buffers13.avg_buf_msgs     0.014240                       # Average number of messages in buffer
system.ruby.network.routers10.port_buffers13.avg_stall_time    79.535170                       # Average number of cycles messages are stalled in this MB
system.ruby.network.routers10.port_buffers14.avg_buf_msgs     0.008252                       # Average number of messages in buffer
system.ruby.network.routers10.port_buffers14.avg_stall_time    71.356324                       # Average number of cycles messages are stalled in this MB
system.ruby.network.routers10.port_buffers16.avg_buf_msgs     0.014141                       # Average number of messages in buffer
system.ruby.network.routers10.port_buffers16.avg_stall_time    79.790362                       # Average number of cycles messages are stalled in this MB
system.ruby.network.routers10.port_buffers17.avg_buf_msgs     0.008204                       # Average number of messages in buffer
system.ruby.network.routers10.port_buffers17.avg_stall_time    70.816847                       # Average number of cycles messages are stalled in this MB
system.ruby.network.routers10.port_buffers19.avg_buf_msgs     0.014325                       # Average number of messages in buffer
system.ruby.network.routers10.port_buffers19.avg_stall_time    80.100902                       # Average number of cycles messages are stalled in this MB
system.ruby.network.routers10.port_buffers20.avg_buf_msgs     0.008342                       # Average number of messages in buffer
system.ruby.network.routers10.port_buffers20.avg_stall_time    71.049293                       # Average number of cycles messages are stalled in this MB
system.ruby.network.routers10.port_buffers22.avg_buf_msgs     0.014305                       # Average number of messages in buffer
system.ruby.network.routers10.port_buffers22.avg_stall_time    80.045638                       # Average number of cycles messages are stalled in this MB
system.ruby.network.routers10.port_buffers23.avg_buf_msgs     0.008263                       # Average number of messages in buffer
system.ruby.network.routers10.port_buffers23.avg_stall_time    70.935872                       # Average number of cycles messages are stalled in this MB
system.ruby.network.routers10.port_buffers24.avg_buf_msgs     0.175675                       # Average number of messages in buffer
system.ruby.network.routers10.port_buffers24.avg_stall_time   112.581326                       # Average number of cycles messages are stalled in this MB
system.ruby.network.routers10.port_buffers25.avg_buf_msgs     0.232672                       # Average number of messages in buffer
system.ruby.network.routers10.port_buffers25.avg_stall_time    66.801599                       # Average number of cycles messages are stalled in this MB
system.ruby.network.routers10.port_buffers26.avg_buf_msgs     0.067333                       # Average number of messages in buffer
system.ruby.network.routers10.port_buffers26.avg_stall_time    64.425900                       # Average number of cycles messages are stalled in this MB
system.ruby.network.routers10.port_buffers27.avg_buf_msgs     0.059738                       # Average number of messages in buffer
system.ruby.network.routers10.port_buffers27.avg_stall_time    73.814391                       # Average number of cycles messages are stalled in this MB
system.ruby.network.routers10.port_buffers28.avg_buf_msgs     0.058286                       # Average number of messages in buffer
system.ruby.network.routers10.port_buffers28.avg_stall_time    71.888702                       # Average number of cycles messages are stalled in this MB
system.ruby.network.routers10.pwrStateResidencyTicks::UNDEFINED    591320721                       # Cumulative time (in ticks) in various power states
system.ruby.network.routers10.throttle0.link_utilization     0.268504                      
system.ruby.network.routers10.throttle0.msg_bytes.Request_Control::2      2325408                      
system.ruby.network.routers10.throttle0.msg_bytes.Response_Control::1      1413416                      
system.ruby.network.routers10.throttle0.msg_bytes.Response_Data::1     21664728                      
system.ruby.network.routers10.throttle0.msg_count.Request_Control::2       290676                      
system.ruby.network.routers10.throttle0.msg_count.Response_Control::1       176677                      
system.ruby.network.routers10.throttle0.msg_count.Response_Data::1       300899                      
system.ruby.network.routers10.throttle1.link_utilization     0.268425                      
system.ruby.network.routers10.throttle1.msg_bytes.Request_Control::2      2327184                      
system.ruby.network.routers10.throttle1.msg_bytes.Response_Control::1      1415728                      
system.ruby.network.routers10.throttle1.msg_bytes.Response_Data::1     21653136                      
system.ruby.network.routers10.throttle1.msg_count.Request_Control::2       290898                      
system.ruby.network.routers10.throttle1.msg_count.Response_Control::1       176966                      
system.ruby.network.routers10.throttle1.msg_count.Response_Data::1       300738                      
system.ruby.network.routers10.throttle2.link_utilization     0.268334                      
system.ruby.network.routers10.throttle2.msg_bytes.Request_Control::2      2325912                      
system.ruby.network.routers10.throttle2.msg_bytes.Response_Control::1      1410936                      
system.ruby.network.routers10.throttle2.msg_bytes.Response_Data::1     21650616                      
system.ruby.network.routers10.throttle2.msg_count.Request_Control::2       290739                      
system.ruby.network.routers10.throttle2.msg_count.Response_Control::1       176367                      
system.ruby.network.routers10.throttle2.msg_count.Response_Data::1       300703                      
system.ruby.network.routers10.throttle3.link_utilization     0.268098                      
system.ruby.network.routers10.throttle3.msg_bytes.Request_Control::2      2323904                      
system.ruby.network.routers10.throttle3.msg_bytes.Response_Control::1      1410920                      
system.ruby.network.routers10.throttle3.msg_bytes.Response_Data::1     21630240                      
system.ruby.network.routers10.throttle3.msg_count.Request_Control::2       290488                      
system.ruby.network.routers10.throttle3.msg_count.Response_Control::1       176365                      
system.ruby.network.routers10.throttle3.msg_count.Response_Data::1       300420                      
system.ruby.network.routers10.throttle4.link_utilization     0.268245                      
system.ruby.network.routers10.throttle4.msg_bytes.Request_Control::2      2322920                      
system.ruby.network.routers10.throttle4.msg_bytes.Response_Control::1      1414368                      
system.ruby.network.routers10.throttle4.msg_bytes.Response_Data::1     21641688                      
system.ruby.network.routers10.throttle4.msg_count.Request_Control::2       290365                      
system.ruby.network.routers10.throttle4.msg_count.Response_Control::1       176796                      
system.ruby.network.routers10.throttle4.msg_count.Response_Data::1       300579                      
system.ruby.network.routers10.throttle5.link_utilization     0.267786                      
system.ruby.network.routers10.throttle5.msg_bytes.Request_Control::2      2321888                      
system.ruby.network.routers10.throttle5.msg_bytes.Response_Control::1      1410232                      
system.ruby.network.routers10.throttle5.msg_bytes.Response_Data::1     21603456                      
system.ruby.network.routers10.throttle5.msg_count.Request_Control::2       290236                      
system.ruby.network.routers10.throttle5.msg_count.Response_Control::1       176279                      
system.ruby.network.routers10.throttle5.msg_count.Response_Data::1       300048                      
system.ruby.network.routers10.throttle6.link_utilization     0.268666                      
system.ruby.network.routers10.throttle6.msg_bytes.Request_Control::2      2328808                      
system.ruby.network.routers10.throttle6.msg_bytes.Response_Control::1      1416456                      
system.ruby.network.routers10.throttle6.msg_bytes.Response_Data::1     21673584                      
system.ruby.network.routers10.throttle6.msg_count.Request_Control::2       291101                      
system.ruby.network.routers10.throttle6.msg_count.Response_Control::1       177057                      
system.ruby.network.routers10.throttle6.msg_count.Response_Data::1       301022                      
system.ruby.network.routers10.throttle7.link_utilization     0.268327                      
system.ruby.network.routers10.throttle7.msg_bytes.Request_Control::2      2325576                      
system.ruby.network.routers10.throttle7.msg_bytes.Response_Control::1      1413864                      
system.ruby.network.routers10.throttle7.msg_bytes.Response_Data::1     21647376                      
system.ruby.network.routers10.throttle7.msg_count.Request_Control::2       290697                      
system.ruby.network.routers10.throttle7.msg_count.Response_Control::1       176733                      
system.ruby.network.routers10.throttle7.msg_count.Response_Data::1       300658                      
system.ruby.network.routers10.throttle8.link_utilization     4.101250                      
system.ruby.network.routers10.throttle8.msg_bytes.Control::0     19329408                      
system.ruby.network.routers10.throttle8.msg_bytes.Response_Control::1     17237104                      
system.ruby.network.routers10.throttle8.msg_bytes.Response_Control::2     17547232                      
system.ruby.network.routers10.throttle8.msg_bytes.Response_Data::1    140934024                      
system.ruby.network.routers10.throttle8.msg_bytes.Writeback_Control::0      1062392                      
system.ruby.network.routers10.throttle8.msg_bytes.Writeback_Data::0     81917208                      
system.ruby.network.routers10.throttle8.msg_bytes.Writeback_Data::1    109997280                      
system.ruby.network.routers10.throttle8.msg_count.Control::0      2416176                      
system.ruby.network.routers10.throttle8.msg_count.Response_Control::1      2154638                      
system.ruby.network.routers10.throttle8.msg_count.Response_Control::2      2193404                      
system.ruby.network.routers10.throttle8.msg_count.Response_Data::1      1957417                      
system.ruby.network.routers10.throttle8.msg_count.Writeback_Control::0       132799                      
system.ruby.network.routers10.throttle8.msg_count.Writeback_Data::0      1137739                      
system.ruby.network.routers10.throttle8.msg_count.Writeback_Data::1      1527740                      
system.ruby.network.routers10.throttle9.link_utilization     1.349590                      
system.ruby.network.routers10.throttle9.msg_bytes.Control::0     15037000                      
system.ruby.network.routers10.throttle9.msg_bytes.Response_Control::1      2835392                      
system.ruby.network.routers10.throttle9.msg_bytes.Response_Data::1    109814112                      
system.ruby.network.routers10.throttle9.msg_count.Control::0      1879625                      
system.ruby.network.routers10.throttle9.msg_count.Response_Control::1       354424                      
system.ruby.network.routers10.throttle9.msg_count.Response_Data::1      1525196                      
system.ruby.outstanding_req_hist_seqr::bucket_size            2                      
system.ruby.outstanding_req_hist_seqr::max_bucket           19                      
system.ruby.outstanding_req_hist_seqr::samples      2500535                      
system.ruby.outstanding_req_hist_seqr::mean    15.840024                      
system.ruby.outstanding_req_hist_seqr::gmean    15.834723                      
system.ruby.outstanding_req_hist_seqr::stdev     0.394571                      
system.ruby.outstanding_req_hist_seqr    |           8      0.00%      0.00% |          16      0.00%      0.00% |          18      0.00%      0.00% |          17      0.00%      0.00% |          19      0.00%      0.00% |          16      0.00%      0.00% |         713      0.03%      0.03% |      377117     15.08%     15.11% |     2122611     84.89%    100.00% |           0      0.00%    100.00%
system.ruby.outstanding_req_hist_seqr::total      2500535                      
system.ruby.pwrStateResidencyTicks::UNDEFINED    591320721                       # Cumulative time (in ticks) in various power states
system.sys_port_proxy.pwrStateResidencyTicks::UNDEFINED    591320721                       # Cumulative time (in ticks) in various power states
system.voltage_domain.voltage                       1                       # Voltage in Volts

---------- End Simulation Statistics   ----------
