
---------- Begin Simulation Statistics ----------
final_tick                                   76395661                       # Number of ticks from beginning of simulation (restored from checkpoints and never reset)
host_mem_usage                                 870292                       # Number of bytes of host memory used
host_seconds                                   171.90                       # Real time elapsed on the host
host_tick_rate                                 444429                       # Simulator tick rate (ticks/s)
sim_freq                                   1000000000                       # Frequency of simulated ticks
sim_seconds                                  0.076396                       # Number of seconds simulated
sim_ticks                                    76395661                       # Number of ticks simulated
system.clk_domain.clock                             1                       # Clock period in ticks
system.cpu.pwrStateResidencyTicks::UNDEFINED     76395661                       # Cumulative time (in ticks) in various power states
system.mem_ctrls.avgBusLat                       5.00                       # Average bus latency per DRAM burst
system.mem_ctrls.avgGap                         69.26                       # Average gap between requests
system.mem_ctrls.avgMemAccLat                   30.62                       # Average memory access latency per DRAM burst
system.mem_ctrls.avgPriority_.ruby.dir_cntrl0::samples       102.00                       # Average QoS priority value for accepted requests
system.mem_ctrls.avgQLat                        11.62                       # Average queueing delay per DRAM burst
system.mem_ctrls.avgRdBW                         0.09                       # Average DRAM read bandwidth in MiByte/s
system.mem_ctrls.avgRdBWSys                      0.09                       # Average system read bandwidth in MiByte/s
system.mem_ctrls.avgRdQLen                       1.00                       # Average read queue length when enqueuing
system.mem_ctrls.avgWrBW                         0.00                       # Average achieved write bandwidth in MiByte/s
system.mem_ctrls.avgWrBWSys                      0.00                       # Average system write bandwidth in MiByte/s
system.mem_ctrls.avgWrQLen                       0.00                       # Average write queue length when enqueuing
system.mem_ctrls.busUtil                         0.00                       # Data bus utilization in percentage
system.mem_ctrls.busUtilRead                     0.00                       # Data bus utilization in percentage for reads
system.mem_ctrls.busUtilWrite                    0.00                       # Data bus utilization in percentage for writes
system.mem_ctrls.bw_read::.ruby.dir_cntrl0        85450                       # Total read bandwidth from this memory (bytes/s)
system.mem_ctrls.bw_read::total                 85450                       # Total read bandwidth from this memory (bytes/s)
system.mem_ctrls.bw_total::.ruby.dir_cntrl0        85450                       # Total bandwidth to/from this memory (bytes/s)
system.mem_ctrls.bw_total::total                85450                       # Total bandwidth to/from this memory (bytes/s)
system.mem_ctrls.bytesPerActivate::samples            7                       # Bytes accessed per row activation
system.mem_ctrls.bytesPerActivate::mean    932.571429                       # Bytes accessed per row activation
system.mem_ctrls.bytesPerActivate::gmean   901.585678                       # Bytes accessed per row activation
system.mem_ctrls.bytesPerActivate::stdev   215.002990                       # Bytes accessed per row activation
system.mem_ctrls.bytesPerActivate::384-511            1     14.29%     14.29% # Bytes accessed per row activation
system.mem_ctrls.bytesPerActivate::896-1023            1     14.29%     28.57% # Bytes accessed per row activation
system.mem_ctrls.bytesPerActivate::1024-1151            5     71.43%    100.00% # Bytes accessed per row activation
system.mem_ctrls.bytesPerActivate::total            7                       # Bytes accessed per row activation
system.mem_ctrls.bytesReadDRAM                   6528                       # Total number of bytes read from DRAM
system.mem_ctrls.bytesReadSys                    6528                       # Total read bytes from the system interface side
system.mem_ctrls.bytesReadWrQ                       0                       # Total number of bytes read from write queue
system.mem_ctrls.bytesWritten                       0                       # Total number of bytes written to DRAM
system.mem_ctrls.bytesWrittenSys                    0                       # Total written bytes from the system interface side
system.mem_ctrls.bytes_read::.ruby.dir_cntrl0         6528                       # Number of bytes read from this memory
system.mem_ctrls.bytes_read::total               6528                       # Number of bytes read from this memory
system.mem_ctrls.masterReadAccesses::.ruby.dir_cntrl0          102                       # Per-master read serviced memory accesses
system.mem_ctrls.masterReadAvgLat::.ruby.dir_cntrl0        30.62                       # Per-master read average memory access latency
system.mem_ctrls.masterReadBytes::.ruby.dir_cntrl0         6528                       # Per-master bytes read from memory
system.mem_ctrls.masterReadRate::.ruby.dir_cntrl0 85449.879149550121                       # Per-master bytes read from memory rate (Bytes/sec)
system.mem_ctrls.masterReadTotalLat::.ruby.dir_cntrl0         3123                       # Per-master read total memory access latency
system.mem_ctrls.mergedWrBursts                     0                       # Number of DRAM write bursts merged with an existing one
system.mem_ctrls.neitherReadNorWriteReqs            0                       # Number of requests that are neither read nor write
system.mem_ctrls.numRdRetry                         0                       # Number of times read queue was full causing retry
system.mem_ctrls.numReadWriteTurnArounds            0                       # Number of turnarounds from READ to WRITE
system.mem_ctrls.numStayReadState                 203                       # Number of times bus staying in READ state
system.mem_ctrls.numStayWriteState                  0                       # Number of times bus staying in WRITE state
system.mem_ctrls.numWrRetry                         0                       # Number of times write queue was full causing retry
system.mem_ctrls.numWriteReadTurnArounds            0                       # Number of turnarounds from WRITE to READ
system.mem_ctrls.num_reads::.ruby.dir_cntrl0          102                       # Number of read requests responded to by this memory
system.mem_ctrls.num_reads::total                 102                       # Number of read requests responded to by this memory
system.mem_ctrls.pageHitRate                    93.14                       # Row buffer hit rate, read and write combined
system.mem_ctrls.peakBW                      12800.00                       # Theoretical peak bandwidth in MiByte/s
system.mem_ctrls.perBankRdBursts::0                31                       # Per bank write bursts
system.mem_ctrls.perBankRdBursts::1                32                       # Per bank write bursts
system.mem_ctrls.perBankRdBursts::2                32                       # Per bank write bursts
system.mem_ctrls.perBankRdBursts::3                 7                       # Per bank write bursts
system.mem_ctrls.perBankRdBursts::4                 0                       # Per bank write bursts
system.mem_ctrls.perBankRdBursts::5                 0                       # Per bank write bursts
system.mem_ctrls.perBankRdBursts::6                 0                       # Per bank write bursts
system.mem_ctrls.perBankRdBursts::7                 0                       # Per bank write bursts
system.mem_ctrls.perBankRdBursts::8                 0                       # Per bank write bursts
system.mem_ctrls.perBankRdBursts::9                 0                       # Per bank write bursts
system.mem_ctrls.perBankRdBursts::10                0                       # Per bank write bursts
system.mem_ctrls.perBankRdBursts::11                0                       # Per bank write bursts
system.mem_ctrls.perBankRdBursts::12                0                       # Per bank write bursts
system.mem_ctrls.perBankRdBursts::13                0                       # Per bank write bursts
system.mem_ctrls.perBankRdBursts::14                0                       # Per bank write bursts
system.mem_ctrls.perBankRdBursts::15                0                       # Per bank write bursts
system.mem_ctrls.perBankWrBursts::0                 0                       # Per bank write bursts
system.mem_ctrls.perBankWrBursts::1                 0                       # Per bank write bursts
system.mem_ctrls.perBankWrBursts::2                 0                       # Per bank write bursts
system.mem_ctrls.perBankWrBursts::3                 0                       # Per bank write bursts
system.mem_ctrls.perBankWrBursts::4                 0                       # Per bank write bursts
system.mem_ctrls.perBankWrBursts::5                 0                       # Per bank write bursts
system.mem_ctrls.perBankWrBursts::6                 0                       # Per bank write bursts
system.mem_ctrls.perBankWrBursts::7                 0                       # Per bank write bursts
system.mem_ctrls.perBankWrBursts::8                 0                       # Per bank write bursts
system.mem_ctrls.perBankWrBursts::9                 0                       # Per bank write bursts
system.mem_ctrls.perBankWrBursts::10                0                       # Per bank write bursts
system.mem_ctrls.perBankWrBursts::11                0                       # Per bank write bursts
system.mem_ctrls.perBankWrBursts::12                0                       # Per bank write bursts
system.mem_ctrls.perBankWrBursts::13                0                       # Per bank write bursts
system.mem_ctrls.perBankWrBursts::14                0                       # Per bank write bursts
system.mem_ctrls.perBankWrBursts::15                0                       # Per bank write bursts
system.mem_ctrls.priorityMaxLatency      0.000000111000                       # per QoS priority maximum request to response latency (s)
system.mem_ctrls.priorityMinLatency      0.000000019000                       # per QoS priority minimum request to response latency (s)
system.mem_ctrls.pwrStateResidencyTicks::UNDEFINED     76395661                       # Cumulative time (in ticks) in various power states
system.mem_ctrls.rdQLenPdf::0                      33                       # What read queue length does an incoming req see
system.mem_ctrls.rdQLenPdf::1                      21                       # What read queue length does an incoming req see
system.mem_ctrls.rdQLenPdf::2                      18                       # What read queue length does an incoming req see
system.mem_ctrls.rdQLenPdf::3                      11                       # What read queue length does an incoming req see
system.mem_ctrls.rdQLenPdf::4                       8                       # What read queue length does an incoming req see
system.mem_ctrls.rdQLenPdf::5                       6                       # What read queue length does an incoming req see
system.mem_ctrls.rdQLenPdf::6                       4                       # What read queue length does an incoming req see
system.mem_ctrls.rdQLenPdf::7                       1                       # What read queue length does an incoming req see
system.mem_ctrls.rdQLenPdf::8                       0                       # What read queue length does an incoming req see
system.mem_ctrls.rdQLenPdf::9                       0                       # What read queue length does an incoming req see
system.mem_ctrls.rdQLenPdf::10                      0                       # What read queue length does an incoming req see
system.mem_ctrls.rdQLenPdf::11                      0                       # What read queue length does an incoming req see
system.mem_ctrls.rdQLenPdf::12                      0                       # What read queue length does an incoming req see
system.mem_ctrls.rdQLenPdf::13                      0                       # What read queue length does an incoming req see
system.mem_ctrls.rdQLenPdf::14                      0                       # What read queue length does an incoming req see
system.mem_ctrls.rdQLenPdf::15                      0                       # What read queue length does an incoming req see
system.mem_ctrls.rdQLenPdf::16                      0                       # What read queue length does an incoming req see
system.mem_ctrls.rdQLenPdf::17                      0                       # What read queue length does an incoming req see
system.mem_ctrls.rdQLenPdf::18                      0                       # What read queue length does an incoming req see
system.mem_ctrls.rdQLenPdf::19                      0                       # What read queue length does an incoming req see
system.mem_ctrls.rdQLenPdf::20                      0                       # What read queue length does an incoming req see
system.mem_ctrls.rdQLenPdf::21                      0                       # What read queue length does an incoming req see
system.mem_ctrls.rdQLenPdf::22                      0                       # What read queue length does an incoming req see
system.mem_ctrls.rdQLenPdf::23                      0                       # What read queue length does an incoming req see
system.mem_ctrls.rdQLenPdf::24                      0                       # What read queue length does an incoming req see
system.mem_ctrls.rdQLenPdf::25                      0                       # What read queue length does an incoming req see
system.mem_ctrls.rdQLenPdf::26                      0                       # What read queue length does an incoming req see
system.mem_ctrls.rdQLenPdf::27                      0                       # What read queue length does an incoming req see
system.mem_ctrls.rdQLenPdf::28                      0                       # What read queue length does an incoming req see
system.mem_ctrls.rdQLenPdf::29                      0                       # What read queue length does an incoming req see
system.mem_ctrls.rdQLenPdf::30                      0                       # What read queue length does an incoming req see
system.mem_ctrls.rdQLenPdf::31                      0                       # What read queue length does an incoming req see
system.mem_ctrls.readBursts                       102                       # Number of DRAM read bursts, including those serviced by the write queue
system.mem_ctrls.readPktSize::0                     0                       # Read request sizes (log2)
system.mem_ctrls.readPktSize::1                     0                       # Read request sizes (log2)
system.mem_ctrls.readPktSize::2                     0                       # Read request sizes (log2)
system.mem_ctrls.readPktSize::3                     0                       # Read request sizes (log2)
system.mem_ctrls.readPktSize::4                     0                       # Read request sizes (log2)
system.mem_ctrls.readPktSize::5                     0                       # Read request sizes (log2)
system.mem_ctrls.readPktSize::6                   102                       # Read request sizes (log2)
system.mem_ctrls.readReqs                         102                       # Number of read requests accepted
system.mem_ctrls.readRowHitRate                 93.14                       # Row buffer hit rate for reads
system.mem_ctrls.readRowHits                       95                       # Number of row buffer hits during reads
system.mem_ctrls.servicedByWrQ                      0                       # Number of DRAM read bursts serviced by the write queue
system.mem_ctrls.totBusLat                        510                       # Total ticks spent in databus transfers
system.mem_ctrls.totGap                          7065                       # Total gap between requests
system.mem_ctrls.totMemAccLat                    3123                       # Total ticks spent from burst creation until serviced by the DRAM
system.mem_ctrls.totQLat                         1185                       # Total ticks spent queuing
system.mem_ctrls.wrQLenPdf::0                       0                       # What write queue length does an incoming req see
system.mem_ctrls.wrQLenPdf::1                       0                       # What write queue length does an incoming req see
system.mem_ctrls.wrQLenPdf::2                       0                       # What write queue length does an incoming req see
system.mem_ctrls.wrQLenPdf::3                       0                       # What write queue length does an incoming req see
system.mem_ctrls.wrQLenPdf::4                       0                       # What write queue length does an incoming req see
system.mem_ctrls.wrQLenPdf::5                       0                       # What write queue length does an incoming req see
system.mem_ctrls.wrQLenPdf::6                       0                       # What write queue length does an incoming req see
system.mem_ctrls.wrQLenPdf::7                       0                       # What write queue length does an incoming req see
system.mem_ctrls.wrQLenPdf::8                       0                       # What write queue length does an incoming req see
system.mem_ctrls.wrQLenPdf::9                       0                       # What write queue length does an incoming req see
system.mem_ctrls.wrQLenPdf::10                      0                       # What write queue length does an incoming req see
system.mem_ctrls.wrQLenPdf::11                      0                       # What write queue length does an incoming req see
system.mem_ctrls.wrQLenPdf::12                      0                       # What write queue length does an incoming req see
system.mem_ctrls.wrQLenPdf::13                      0                       # What write queue length does an incoming req see
system.mem_ctrls.wrQLenPdf::14                      0                       # What write queue length does an incoming req see
system.mem_ctrls.wrQLenPdf::15                      0                       # What write queue length does an incoming req see
system.mem_ctrls.wrQLenPdf::16                      0                       # What write queue length does an incoming req see
system.mem_ctrls.wrQLenPdf::17                      0                       # What write queue length does an incoming req see
system.mem_ctrls.wrQLenPdf::18                      0                       # What write queue length does an incoming req see
system.mem_ctrls.wrQLenPdf::19                      0                       # What write queue length does an incoming req see
system.mem_ctrls.wrQLenPdf::20                      0                       # What write queue length does an incoming req see
system.mem_ctrls.wrQLenPdf::21                      0                       # What write queue length does an incoming req see
system.mem_ctrls.wrQLenPdf::22                      0                       # What write queue length does an incoming req see
system.mem_ctrls.wrQLenPdf::23                      0                       # What write queue length does an incoming req see
system.mem_ctrls.wrQLenPdf::24                      0                       # What write queue length does an incoming req see
system.mem_ctrls.wrQLenPdf::25                      0                       # What write queue length does an incoming req see
system.mem_ctrls.wrQLenPdf::26                      0                       # What write queue length does an incoming req see
system.mem_ctrls.wrQLenPdf::27                      0                       # What write queue length does an incoming req see
system.mem_ctrls.wrQLenPdf::28                      0                       # What write queue length does an incoming req see
system.mem_ctrls.wrQLenPdf::29                      0                       # What write queue length does an incoming req see
system.mem_ctrls.wrQLenPdf::30                      0                       # What write queue length does an incoming req see
system.mem_ctrls.wrQLenPdf::31                      0                       # What write queue length does an incoming req see
system.mem_ctrls.wrQLenPdf::32                      0                       # What write queue length does an incoming req see
system.mem_ctrls.wrQLenPdf::33                      0                       # What write queue length does an incoming req see
system.mem_ctrls.wrQLenPdf::34                      0                       # What write queue length does an incoming req see
system.mem_ctrls.wrQLenPdf::35                      0                       # What write queue length does an incoming req see
system.mem_ctrls.wrQLenPdf::36                      0                       # What write queue length does an incoming req see
system.mem_ctrls.wrQLenPdf::37                      0                       # What write queue length does an incoming req see
system.mem_ctrls.wrQLenPdf::38                      0                       # What write queue length does an incoming req see
system.mem_ctrls.wrQLenPdf::39                      0                       # What write queue length does an incoming req see
system.mem_ctrls.wrQLenPdf::40                      0                       # What write queue length does an incoming req see
system.mem_ctrls.wrQLenPdf::41                      0                       # What write queue length does an incoming req see
system.mem_ctrls.wrQLenPdf::42                      0                       # What write queue length does an incoming req see
system.mem_ctrls.wrQLenPdf::43                      0                       # What write queue length does an incoming req see
system.mem_ctrls.wrQLenPdf::44                      0                       # What write queue length does an incoming req see
system.mem_ctrls.wrQLenPdf::45                      0                       # What write queue length does an incoming req see
system.mem_ctrls.wrQLenPdf::46                      0                       # What write queue length does an incoming req see
system.mem_ctrls.wrQLenPdf::47                      0                       # What write queue length does an incoming req see
system.mem_ctrls.wrQLenPdf::48                      0                       # What write queue length does an incoming req see
system.mem_ctrls.wrQLenPdf::49                      0                       # What write queue length does an incoming req see
system.mem_ctrls.wrQLenPdf::50                      0                       # What write queue length does an incoming req see
system.mem_ctrls.wrQLenPdf::51                      0                       # What write queue length does an incoming req see
system.mem_ctrls.wrQLenPdf::52                      0                       # What write queue length does an incoming req see
system.mem_ctrls.wrQLenPdf::53                      0                       # What write queue length does an incoming req see
system.mem_ctrls.wrQLenPdf::54                      0                       # What write queue length does an incoming req see
system.mem_ctrls.wrQLenPdf::55                      0                       # What write queue length does an incoming req see
system.mem_ctrls.wrQLenPdf::56                      0                       # What write queue length does an incoming req see
system.mem_ctrls.wrQLenPdf::57                      0                       # What write queue length does an incoming req see
system.mem_ctrls.wrQLenPdf::58                      0                       # What write queue length does an incoming req see
system.mem_ctrls.wrQLenPdf::59                      0                       # What write queue length does an incoming req see
system.mem_ctrls.wrQLenPdf::60                      0                       # What write queue length does an incoming req see
system.mem_ctrls.wrQLenPdf::61                      0                       # What write queue length does an incoming req see
system.mem_ctrls.wrQLenPdf::62                      0                       # What write queue length does an incoming req see
system.mem_ctrls.wrQLenPdf::63                      0                       # What write queue length does an incoming req see
system.mem_ctrls.writeBursts                        0                       # Number of DRAM write bursts, including those merged in the write queue
system.mem_ctrls.writePktSize::0                    0                       # Write request sizes (log2)
system.mem_ctrls.writePktSize::1                    0                       # Write request sizes (log2)
system.mem_ctrls.writePktSize::2                    0                       # Write request sizes (log2)
system.mem_ctrls.writePktSize::3                    0                       # Write request sizes (log2)
system.mem_ctrls.writePktSize::4                    0                       # Write request sizes (log2)
system.mem_ctrls.writePktSize::5                    0                       # Write request sizes (log2)
system.mem_ctrls.writePktSize::6                    0                       # Write request sizes (log2)
system.mem_ctrls.writeReqs                          0                       # Number of write requests accepted
system.mem_ctrls.writeRowHitRate                  nan                       # Row buffer hit rate for writes
system.mem_ctrls.writeRowHits                       0                       # Number of row buffer hits during writes
system.mem_ctrls_0.actBackEnergy              1331976                       # Energy for active background per rank (pJ)
system.mem_ctrls_0.actEnergy                    49980                       # Energy for activate commands per rank (pJ)
system.mem_ctrls_0.actPowerDownEnergy         2264040                       # Energy for active power-down per rank (pJ)
system.mem_ctrls_0.averagePower            240.068331                       # Core power per rank (mW)
system.mem_ctrls_0.memoryStateTime::IDLE          152                       # Time in different power states
system.mem_ctrls_0.memoryStateTime::REF           260                       # Time in different power states
system.mem_ctrls_0.memoryStateTime::SREF     76380083                       # Time in different power states
system.mem_ctrls_0.memoryStateTime::PRE_PDN         7512                       # Time in different power states
system.mem_ctrls_0.memoryStateTime::ACT          2689                       # Time in different power states
system.mem_ctrls_0.memoryStateTime::ACT_PDN         4965                       # Time in different power states
system.mem_ctrls_0.preBackEnergy                69120                       # Energy for precharge background per rank (pJ)
system.mem_ctrls_0.preEnergy                    27048                       # Energy for precharge commands per rank (pJ)
system.mem_ctrls_0.prePowerDownEnergy         2884608                       # Energy for precharge power-down per rank (pJ)
system.mem_ctrls_0.readEnergy                 1165248                       # Energy for read commands per rank (pJ)
system.mem_ctrls_0.refreshEnergy         614640.000000                       # Energy for refresh commands per rank (pJ)
system.mem_ctrls_0.selfRefreshEnergy      18331772160                       # Energy for self refresh per rank (pJ)
system.mem_ctrls_0.totalEnergy            18340178820                       # Total energy per rank (pJ)
system.mem_ctrls_0.totalIdleTime                12477                       # Total Idle time Per DRAM Rank
system.mem_ctrls_0.writeEnergy                      0                       # Energy for write commands per rank (pJ)
system.mem_ctrls_1.actBackEnergy               112176                       # Energy for active background per rank (pJ)
system.mem_ctrls_1.actEnergy                        0                       # Energy for activate commands per rank (pJ)
system.mem_ctrls_1.actPowerDownEnergy               0                       # Energy for active power-down per rank (pJ)
system.mem_ctrls_1.averagePower            240.044869                       # Core power per rank (mW)
system.mem_ctrls_1.memoryStateTime::IDLE         7792                       # Time in different power states
system.mem_ctrls_1.memoryStateTime::REF           260                       # Time in different power states
system.mem_ctrls_1.memoryStateTime::SREF     76380083                       # Time in different power states
system.mem_ctrls_1.memoryStateTime::PRE_PDN         7526                       # Time in different power states
system.mem_ctrls_1.memoryStateTime::ACT             0                       # Time in different power states
system.mem_ctrls_1.memoryStateTime::ACT_PDN            0                       # Time in different power states
system.mem_ctrls_1.preBackEnergy              2997504                       # Energy for precharge background per rank (pJ)
system.mem_ctrls_1.preEnergy                        0                       # Energy for precharge commands per rank (pJ)
system.mem_ctrls_1.prePowerDownEnergy         2889984                       # Energy for precharge power-down per rank (pJ)
system.mem_ctrls_1.readEnergy                       0                       # Energy for read commands per rank (pJ)
system.mem_ctrls_1.refreshEnergy         614640.000000                       # Energy for refresh commands per rank (pJ)
system.mem_ctrls_1.selfRefreshEnergy      18331772160                       # Energy for self refresh per rank (pJ)
system.mem_ctrls_1.totalEnergy            18338386464                       # Total energy per rank (pJ)
system.mem_ctrls_1.totalIdleTime                 7526                       # Total Idle time Per DRAM Rank
system.mem_ctrls_1.writeEnergy                      0                       # Energy for write commands per rank (pJ)
system.pwrStateResidencyTicks::UNDEFINED     76395661                       # Cumulative time (in ticks) in various power states
system.ruby.Directory_Controller.Fetch            102      0.00%      0.00%
system.ruby.Directory_Controller.I.Fetch          102      0.00%      0.00%
system.ruby.Directory_Controller.IM.Memory_Data          102      0.00%      0.00%
system.ruby.Directory_Controller.Memory_Data          102      0.00%      0.00%
system.ruby.IFETCH.hit_latency_hist_seqr::bucket_size           16                      
system.ruby.IFETCH.hit_latency_hist_seqr::max_bucket          159                      
system.ruby.IFETCH.hit_latency_hist_seqr::samples         1636                      
system.ruby.IFETCH.hit_latency_hist_seqr::mean    16.947433                      
system.ruby.IFETCH.hit_latency_hist_seqr::gmean     3.773258                      
system.ruby.IFETCH.hit_latency_hist_seqr::stdev    36.836206                      
system.ruby.IFETCH.hit_latency_hist_seqr |        1418     86.67%     86.67% |           0      0.00%     86.67% |           0      0.00%     86.67% |           0      0.00%     86.67% |           0      0.00%     86.67% |           0      0.00%     86.67% |         120      7.33%     94.01% |          98      5.99%    100.00% |           0      0.00%    100.00% |           0      0.00%    100.00%
system.ruby.IFETCH.hit_latency_hist_seqr::total         1636                      
system.ruby.IFETCH.latency_hist_seqr::bucket_size         2048                      
system.ruby.IFETCH.latency_hist_seqr::max_bucket        20479                      
system.ruby.IFETCH.latency_hist_seqr::samples       249906                      
system.ruby.IFETCH.latency_hist_seqr::mean  3424.136099                      
system.ruby.IFETCH.latency_hist_seqr::gmean  3182.270608                      
system.ruby.IFETCH.latency_hist_seqr::stdev  1033.806809                      
system.ruby.IFETCH.latency_hist_seqr     |        5401      2.16%      2.16% |      204817     81.96%     84.12% |       31889     12.76%     96.88% |        7569      3.03%     99.91% |         227      0.09%    100.00% |           3      0.00%    100.00% |           0      0.00%    100.00% |           0      0.00%    100.00% |           0      0.00%    100.00% |           0      0.00%    100.00%
system.ruby.IFETCH.latency_hist_seqr::total       249906                      
system.ruby.IFETCH.miss_latency_hist_seqr::bucket_size         2048                      
system.ruby.IFETCH.miss_latency_hist_seqr::max_bucket        20479                      
system.ruby.IFETCH.miss_latency_hist_seqr::samples       248270                      
system.ruby.IFETCH.miss_latency_hist_seqr::mean  3446.588110                      
system.ruby.IFETCH.miss_latency_hist_seqr::gmean  3326.736578                      
system.ruby.IFETCH.miss_latency_hist_seqr::stdev   999.393641                      
system.ruby.IFETCH.miss_latency_hist_seqr |        3765      1.52%      1.52% |      204817     82.50%     84.01% |       31889     12.84%     96.86% |        7569      3.05%     99.91% |         227      0.09%    100.00% |           3      0.00%    100.00% |           0      0.00%    100.00% |           0      0.00%    100.00% |           0      0.00%    100.00% |           0      0.00%    100.00%
system.ruby.IFETCH.miss_latency_hist_seqr::total       248270                      
system.ruby.L1Cache_Controller.Ack       |       62485     12.68%     12.68% |       61513     12.48%     25.15% |       61440     12.46%     37.62% |       62011     12.58%     50.20% |       61485     12.47%     62.67% |       61149     12.40%     75.07% |       61319     12.44%     87.51% |       61555     12.49%    100.00%
system.ruby.L1Cache_Controller.Ack::total       492957                      
system.ruby.L1Cache_Controller.Ack_all   |          38     15.57%     15.57% |          28     11.48%     27.05% |          34     13.93%     40.98% |          30     12.30%     53.28% |          29     11.89%     65.16% |          27     11.07%     76.23% |          32     13.11%     89.34% |          26     10.66%    100.00%
system.ruby.L1Cache_Controller.Ack_all::total          244                      
system.ruby.L1Cache_Controller.Ack_all_Last_Touch |       18098     12.51%     12.51% |       17998     12.44%     24.95% |       18044     12.47%     37.42% |       18287     12.64%     50.07% |       18234     12.60%     62.67% |       17973     12.42%     75.09% |       18004     12.45%     87.54% |       18027     12.46%    100.00%
system.ruby.L1Cache_Controller.Ack_all_Last_Touch::total       144665                      
system.ruby.L1Cache_Controller.Data      |       18125     12.51%     12.51% |       18018     12.44%     24.95% |       18075     12.48%     37.43% |       18315     12.64%     50.07% |       18258     12.60%     62.67% |       17994     12.42%     75.09% |       18032     12.45%     87.54% |       18050     12.46%    100.00%
system.ruby.L1Cache_Controller.Data::total       144867                      
system.ruby.L1Cache_Controller.DataS_fromL1 |       12451     12.45%     12.45% |       12578     12.57%     25.02% |       12270     12.27%     37.29% |       12695     12.69%     49.98% |       12405     12.40%     62.38% |       12494     12.49%     74.87% |       12592     12.59%     87.46% |       12547     12.54%    100.00%
system.ruby.L1Cache_Controller.DataS_fromL1::total       100032                      
system.ruby.L1Cache_Controller.DataS_fromL1_Last_Touch |       12471     12.42%     12.42% |       12599     12.55%     24.97% |       12493     12.44%     37.41% |       12723     12.67%     50.08% |       12544     12.49%     62.58% |       12459     12.41%     74.99% |       12559     12.51%     87.49% |       12557     12.51%    100.00%
system.ruby.L1Cache_Controller.DataS_fromL1_Last_Touch::total       100405                      
system.ruby.L1Cache_Controller.Data_all_Acks |       18727     12.46%     12.46% |       18919     12.59%     25.05% |       18809     12.52%     37.57% |       18657     12.42%     49.99% |       18859     12.55%     62.54% |       18790     12.50%     75.04% |       18744     12.47%     87.52% |       18760     12.48%    100.00%
system.ruby.L1Cache_Controller.Data_all_Acks::total       150265                      
system.ruby.L1Cache_Controller.Data_all_Acks_Last_Touch |      250684     12.52%     12.52% |      250085     12.49%     25.00% |      250420     12.50%     37.50% |      250004     12.48%     49.99% |      250383     12.50%     62.49% |      250689     12.52%     75.00% |      250342     12.50%     87.50% |      250307     12.50%    100.00%
system.ruby.L1Cache_Controller.Data_all_Acks_Last_Touch::total      2002914                      
system.ruby.L1Cache_Controller.Fwd_GETS  |       12311     12.25%     12.25% |       12683     12.62%     24.86% |       12414     12.35%     37.21% |       12581     12.51%     49.72% |       12542     12.48%     62.20% |       12745     12.68%     74.88% |       12659     12.59%     87.47% |       12597     12.53%    100.00%
system.ruby.L1Cache_Controller.Fwd_GETS::total       100532                      
system.ruby.L1Cache_Controller.Fwd_GETX  |      101836     12.53%     12.53% |      101115     12.44%     24.98% |      101491     12.49%     37.47% |      101360     12.47%     49.94% |      101998     12.55%     62.49% |      101441     12.48%     74.98% |      101474     12.49%     87.47% |      101847     12.53%    100.00%
system.ruby.L1Cache_Controller.Fwd_GETX::total       812562                      
system.ruby.L1Cache_Controller.Fwd_GET_INSTR |       12477     12.49%     12.49% |       12680     12.69%     25.18% |       12614     12.63%     37.81% |       12420     12.43%     50.24% |       12279     12.29%     62.53% |       12552     12.56%     75.09% |       12409     12.42%     87.51% |       12474     12.49%    100.00%
system.ruby.L1Cache_Controller.Fwd_GET_INSTR::total        99905                      
system.ruby.L1Cache_Controller.I.Ifetch  |        2206     12.59%     12.59% |        2231     12.74%     25.33% |        2094     11.95%     37.28% |        2218     12.66%     49.95% |        2137     12.20%     62.15% |        2206     12.59%     74.74% |        2195     12.53%     87.27% |        2230     12.73%    100.00%
system.ruby.L1Cache_Controller.I.Ifetch::total        17517                      
system.ruby.L1Cache_Controller.I.Inv     |       40259     12.39%     12.39% |       41100     12.65%     25.04% |       40817     12.56%     37.61% |       40380     12.43%     50.04% |       40507     12.47%     62.50% |       40557     12.48%     74.99% |       40684     12.52%     87.51% |       40578     12.49%    100.00%
system.ruby.L1Cache_Controller.I.Inv::total       324882                      
system.ruby.L1Cache_Controller.I.L1_Replacement |       52944     12.43%     12.43% |       53542     12.57%     25.00% |       53091     12.46%     37.47% |       53270     12.51%     49.97% |       53368     12.53%     62.50% |       53141     12.48%     74.98% |       53328     12.52%     87.50% |       53250     12.50%    100.00%
system.ruby.L1Cache_Controller.I.L1_Replacement::total       425934                      
system.ruby.L1Cache_Controller.I.Load    |          15     10.95%     10.95% |          17     12.41%     23.36% |          24     17.52%     40.88% |          20     14.60%     55.47% |          17     12.41%     67.88% |          11      8.03%     75.91% |          17     12.41%     88.32% |          16     11.68%    100.00%
system.ruby.L1Cache_Controller.I.Load::total          137                      
system.ruby.L1Cache_Controller.I.Load_Last_Touch |       28792     12.48%     12.48% |       28958     12.55%     25.03% |       28935     12.54%     37.57% |       28754     12.46%     50.03% |       28845     12.50%     62.53% |       28681     12.43%     74.96% |       29005     12.57%     87.53% |       28763     12.47%    100.00%
system.ruby.L1Cache_Controller.I.Load_Last_Touch::total       230733                      
system.ruby.L1Cache_Controller.I.Store   |         147     13.39%     13.39% |         148     13.48%     26.87% |         129     11.75%     38.62% |         130     11.84%     50.46% |         133     12.11%     62.57% |         136     12.39%     74.95% |         138     12.57%     87.52% |         137     12.48%    100.00%
system.ruby.L1Cache_Controller.I.Store::total         1098                      
system.ruby.L1Cache_Controller.I.Store_Last_Touch |      223792     12.52%     12.52% |      222770     12.47%     24.99% |      223327     12.50%     37.49% |      223421     12.50%     49.99% |      223479     12.51%     62.50% |      223647     12.52%     75.02% |      223056     12.48%     87.50% |      223348     12.50%    100.00%
system.ruby.L1Cache_Controller.I.Store_Last_Touch::total      1786840                      
system.ruby.L1Cache_Controller.IM.Ack    |       55755     12.67%     12.67% |       55027     12.50%     25.17% |       54890     12.47%     37.64% |       55323     12.57%     50.21% |       54845     12.46%     62.68% |       54564     12.40%     75.08% |       54700     12.43%     87.50% |       54994     12.50%    100.00%
system.ruby.L1Cache_Controller.IM.Ack::total       440098                      
system.ruby.L1Cache_Controller.IM.Data   |       18125     12.51%     12.51% |       18018     12.44%     24.95% |       18075     12.48%     37.43% |       18315     12.64%     50.07% |       18258     12.60%     62.67% |       17994     12.42%     75.09% |       18032     12.45%     87.54% |       18050     12.46%    100.00%
system.ruby.L1Cache_Controller.IM.Data::total       144867                      
system.ruby.L1Cache_Controller.IM.Data_all_Acks |         237     13.00%     13.00% |         248     13.60%     26.60% |         213     11.68%     38.29% |         219     12.01%     50.30% |         222     12.18%     62.48% |         223     12.23%     74.71% |         230     12.62%     87.33% |         231     12.67%    100.00%
system.ruby.L1Cache_Controller.IM.Data_all_Acks::total         1823                      
system.ruby.L1Cache_Controller.IM.Data_all_Acks_Last_Touch |      232029     12.52%     12.52% |      231236     12.48%     24.99% |      231583     12.49%     37.49% |      231569     12.49%     49.98% |      231694     12.50%     62.48% |      232062     12.52%     75.00% |      231555     12.49%     87.50% |      231741     12.50%    100.00%
system.ruby.L1Cache_Controller.IM.Data_all_Acks_Last_Touch::total      1853469                      
system.ruby.L1Cache_Controller.IM.Inv    |        5648     12.56%     12.56% |        5663     12.59%     25.15% |        5514     12.26%     37.41% |        5699     12.67%     50.09% |        5483     12.19%     62.28% |        5612     12.48%     74.76% |        5640     12.54%     87.30% |        5712     12.70%    100.00%
system.ruby.L1Cache_Controller.IM.Inv::total        44971                      
system.ruby.L1Cache_Controller.IS.DataS_fromL1 |       12214     12.44%     12.44% |       12361     12.59%     25.03% |       12040     12.26%     37.29% |       12466     12.70%     49.99% |       12190     12.42%     62.41% |       12231     12.46%     74.86% |       12367     12.60%     87.46% |       12312     12.54%    100.00%
system.ruby.L1Cache_Controller.IS.DataS_fromL1::total        98181                      
system.ruby.L1Cache_Controller.IS.DataS_fromL1_Last_Touch |       12157     12.43%     12.43% |       12277     12.55%     24.98% |       12161     12.43%     37.41% |       12371     12.65%     50.06% |       12235     12.51%     62.57% |       12146     12.42%     74.99% |       12219     12.49%     87.48% |       12247     12.52%    100.00%
system.ruby.L1Cache_Controller.IS.DataS_fromL1_Last_Touch::total        97813                      
system.ruby.L1Cache_Controller.IS.Data_all_Acks |       17068     12.43%     12.43% |       17309     12.61%     25.04% |       17208     12.54%     37.58% |       17062     12.43%     50.01% |       17203     12.53%     62.54% |       17131     12.48%     75.02% |       17098     12.46%     87.48% |       17189     12.52%    100.00%
system.ruby.L1Cache_Controller.IS.Data_all_Acks::total       137268                      
system.ruby.L1Cache_Controller.IS.Data_all_Acks_Last_Touch |       17196     12.46%     12.46% |       17429     12.63%     25.09% |       17478     12.66%     37.75% |       16958     12.29%     50.04% |       17309     12.54%     62.58% |       17190     12.46%     75.04% |       17292     12.53%     87.57% |       17158     12.43%    100.00%
system.ruby.L1Cache_Controller.IS.Data_all_Acks_Last_Touch::total       138010                      
system.ruby.L1Cache_Controller.IS.Inv    |        3432     12.69%     12.69% |        3321     12.28%     24.96% |        3309     12.23%     37.20% |        3434     12.69%     49.89% |        3338     12.34%     62.23% |        3449     12.75%     74.98% |        3476     12.85%     87.83% |        3293     12.17%    100.00%
system.ruby.L1Cache_Controller.IS.Inv::total        27052                      
system.ruby.L1Cache_Controller.IS_I.DataS_fromL1 |         237     12.80%     12.80% |         217     11.72%     24.53% |         230     12.43%     36.95% |         229     12.37%     49.32% |         215     11.62%     60.94% |         263     14.21%     75.15% |         225     12.16%     87.30% |         235     12.70%    100.00%
system.ruby.L1Cache_Controller.IS_I.DataS_fromL1::total         1851                      
system.ruby.L1Cache_Controller.IS_I.DataS_fromL1_Last_Touch |         314     12.11%     12.11% |         322     12.42%     24.54% |         332     12.81%     37.35% |         352     13.58%     50.93% |         309     11.92%     62.85% |         313     12.08%     74.92% |         340     13.12%     88.04% |         310     11.96%    100.00%
system.ruby.L1Cache_Controller.IS_I.DataS_fromL1_Last_Touch::total         2592                      
system.ruby.L1Cache_Controller.IS_I.Data_all_Acks |        1422     12.73%     12.73% |        1362     12.19%     24.91% |        1388     12.42%     37.34% |        1376     12.31%     49.65% |        1434     12.83%     62.48% |        1436     12.85%     75.34% |        1416     12.67%     88.01% |        1340     11.99%    100.00%
system.ruby.L1Cache_Controller.IS_I.Data_all_Acks::total        11174                      
system.ruby.L1Cache_Controller.IS_I.Data_all_Acks_Last_Touch |        1459     12.76%     12.76% |        1420     12.42%     25.18% |        1359     11.88%     37.06% |        1477     12.92%     49.98% |        1380     12.07%     62.05% |        1437     12.57%     74.61% |        1495     13.07%     87.69% |        1408     12.31%    100.00%
system.ruby.L1Cache_Controller.IS_I.Data_all_Acks_Last_Touch::total        11435                      
system.ruby.L1Cache_Controller.IS_I.Inv  |          11     10.89%     10.89% |          12     11.88%     22.77% |          14     13.86%     36.63% |          14     13.86%     50.50% |          11     10.89%     61.39% |          14     13.86%     75.25% |          11     10.89%     86.14% |          14     13.86%    100.00%
system.ruby.L1Cache_Controller.IS_I.Inv::total          101                      
system.ruby.L1Cache_Controller.Ifetch    |       31124     12.45%     12.45% |       31464     12.59%     25.04% |       31046     12.42%     37.46% |       31298     12.52%     49.98% |       31208     12.49%     62.47% |       31258     12.51%     74.98% |       31287     12.52%     87.49% |       31260     12.51%    100.00%
system.ruby.L1Cache_Controller.Ifetch::total       249945                      
system.ruby.L1Cache_Controller.Inv       |       79205     12.42%     12.42% |       80423     12.61%     25.03% |       79575     12.48%     37.50% |       79647     12.49%     49.99% |       79497     12.46%     62.45% |       79753     12.50%     74.96% |       79915     12.53%     87.49% |       79809     12.51%    100.00%
system.ruby.L1Cache_Controller.Inv::total       637824                      
system.ruby.L1Cache_Controller.L1_Replacement |       62411     12.41%     12.41% |       63206     12.57%     24.98% |       62668     12.46%     37.45% |       62871     12.50%     49.95% |       62932     12.52%     62.47% |       62803     12.49%     74.96% |       63004     12.53%     87.49% |       62900     12.51%    100.00%
system.ruby.L1Cache_Controller.L1_Replacement::total       502795                      
system.ruby.L1Cache_Controller.Load      |        2366     12.21%     12.21% |        2519     13.00%     25.20% |        2439     12.58%     37.79% |        2438     12.58%     50.37% |        2422     12.50%     62.86% |        2438     12.58%     75.44% |        2366     12.21%     87.65% |        2394     12.35%    100.00%
system.ruby.L1Cache_Controller.Load::total        19382                      
system.ruby.L1Cache_Controller.Load_Last_Touch |       33881     12.48%     12.48% |       34127     12.57%     25.04% |       34119     12.56%     37.61% |       33903     12.48%     50.09% |       33878     12.48%     62.57% |       33734     12.42%     74.99% |       34105     12.56%     87.55% |       33812     12.45%    100.00%
system.ruby.L1Cache_Controller.Load_Last_Touch::total       271559                      
system.ruby.L1Cache_Controller.M.Fwd_GETS |          22     13.10%     13.10% |          30     17.86%     30.95% |          12      7.14%     38.10% |          19     11.31%     49.40% |          19     11.31%     60.71% |          22     13.10%     73.81% |          20     11.90%     85.71% |          24     14.29%    100.00%
system.ruby.L1Cache_Controller.M.Fwd_GETS::total          168                      
system.ruby.L1Cache_Controller.M.Fwd_GETX |         218     13.55%     13.55% |         189     11.75%     25.30% |         197     12.24%     37.54% |         204     12.68%     50.22% |         203     12.62%     62.83% |         201     12.49%     75.33% |         200     12.43%     87.76% |         197     12.24%    100.00%
system.ruby.L1Cache_Controller.M.Fwd_GETX::total         1609                      
system.ruby.L1Cache_Controller.M.Fwd_GET_INSTR |          24     13.11%     13.11% |          39     21.31%     34.43% |          22     12.02%     46.45% |          15      8.20%     54.64% |          18      9.84%     64.48% |          16      8.74%     73.22% |          26     14.21%     87.43% |          23     12.57%    100.00%
system.ruby.L1Cache_Controller.M.Fwd_GET_INSTR::total          183                      
system.ruby.L1Cache_Controller.M.L1_Replacement |           2      7.14%      7.14% |           4     14.29%     21.43% |           2      7.14%     28.57% |           4     14.29%     42.86% |           0      0.00%     42.86% |           4     14.29%     57.14% |           6     21.43%     78.57% |           6     21.43%    100.00%
system.ruby.L1Cache_Controller.M.L1_Replacement::total           28                      
system.ruby.L1Cache_Controller.M.Load    |           5     23.81%     23.81% |           3     14.29%     38.10% |           1      4.76%     42.86% |           2      9.52%     52.38% |           3     14.29%     66.67% |           2      9.52%     76.19% |           2      9.52%     85.71% |           3     14.29%    100.00%
system.ruby.L1Cache_Controller.M.Load::total           21                      
system.ruby.L1Cache_Controller.M.Load_Last_Touch |           1     10.00%     10.00% |           1     10.00%     20.00% |           2     20.00%     40.00% |           1     10.00%     50.00% |           1     10.00%     60.00% |           0      0.00%     60.00% |           4     40.00%    100.00% |           0      0.00%    100.00%
system.ruby.L1Cache_Controller.M.Load_Last_Touch::total           10                      
system.ruby.L1Cache_Controller.M.Store   |          25     13.59%     13.59% |          30     16.30%     29.89% |          24     13.04%     42.93% |          23     12.50%     55.43% |          21     11.41%     66.85% |           8      4.35%     71.20% |          31     16.85%     88.04% |          22     11.96%    100.00%
system.ruby.L1Cache_Controller.M.Store::total          184                      
system.ruby.L1Cache_Controller.M.Store_Last_Touch |           8     11.59%     11.59% |          13     18.84%     30.43% |          12     17.39%     47.83% |           6      8.70%     56.52% |          10     14.49%     71.01% |           7     10.14%     81.16% |           6      8.70%     89.86% |           7     10.14%    100.00%
system.ruby.L1Cache_Controller.M.Store_Last_Touch::total           69                      
system.ruby.L1Cache_Controller.M_I.Fwd_GETS |       12289     12.24%     12.24% |       12653     12.61%     24.85% |       12402     12.36%     37.21% |       12562     12.52%     49.73% |       12523     12.48%     62.20% |       12723     12.68%     74.88% |       12639     12.59%     87.47% |       12573     12.53%    100.00%
system.ruby.L1Cache_Controller.M_I.Fwd_GETS::total       100364                      
system.ruby.L1Cache_Controller.M_I.Fwd_GETX |      101618     12.53%     12.53% |      100926     12.45%     24.98% |      101294     12.49%     37.47% |      101156     12.47%     49.94% |      101795     12.55%     62.49% |      101240     12.48%     74.98% |      101274     12.49%     87.47% |      101650     12.53%    100.00%
system.ruby.L1Cache_Controller.M_I.Fwd_GETX::total       810953                      
system.ruby.L1Cache_Controller.M_I.Fwd_GET_INSTR |       12453     12.49%     12.49% |       12641     12.68%     25.16% |       12592     12.63%     37.79% |       12405     12.44%     50.23% |       12261     12.30%     62.53% |       12536     12.57%     75.10% |       12383     12.42%     87.51% |       12451     12.49%    100.00%
system.ruby.L1Cache_Controller.M_I.Fwd_GET_INSTR::total        99722                      
system.ruby.L1Cache_Controller.M_I.Ifetch |           2      7.14%      7.14% |           4     14.29%     21.43% |           2      7.14%     28.57% |           4     14.29%     42.86% |           0      0.00%     42.86% |           4     14.29%     57.14% |           6     21.43%     78.57% |           6     21.43%    100.00%
system.ruby.L1Cache_Controller.M_I.Ifetch::total           28                      
system.ruby.L1Cache_Controller.M_I.L1_Replacement |        3100     12.01%     12.01% |        3273     12.68%     24.69% |        3241     12.56%     37.25% |        3201     12.40%     49.66% |        3283     12.72%     62.38% |        3169     12.28%     74.66% |        3277     12.70%     87.36% |        3263     12.64%    100.00%
system.ruby.L1Cache_Controller.M_I.L1_Replacement::total        25807                      
system.ruby.L1Cache_Controller.M_I.Load  |           1      9.09%      9.09% |           2     18.18%     27.27% |           2     18.18%     45.45% |           1      9.09%     54.55% |           0      0.00%     54.55% |           3     27.27%     81.82% |           0      0.00%     81.82% |           2     18.18%    100.00%
system.ruby.L1Cache_Controller.M_I.Load::total           11                      
system.ruby.L1Cache_Controller.M_I.Load_Last_Touch |        3180     12.45%     12.45% |        3265     12.78%     25.23% |        3258     12.76%     37.99% |        3177     12.44%     50.43% |        3151     12.34%     62.76% |        3212     12.58%     75.34% |        3148     12.32%     87.66% |        3151     12.34%    100.00%
system.ruby.L1Cache_Controller.M_I.Load_Last_Touch::total        25542                      
system.ruby.L1Cache_Controller.M_I.Store |           6      5.83%      5.83% |          11     10.68%     16.50% |          17     16.50%     33.01% |           9      8.74%     41.75% |          24     23.30%     65.05% |          14     13.59%     78.64% |           7      6.80%     85.44% |          15     14.56%    100.00%
system.ruby.L1Cache_Controller.M_I.Store::total          103                      
system.ruby.L1Cache_Controller.M_I.Store_Last_Touch |       21889     12.57%     12.57% |       21845     12.55%     25.12% |       21883     12.57%     37.69% |       21537     12.37%     50.06% |       21635     12.43%     62.49% |       21781     12.51%     75.00% |       21800     12.52%     87.52% |       21720     12.48%    100.00%
system.ruby.L1Cache_Controller.M_I.Store_Last_Touch::total       174090                      
system.ruby.L1Cache_Controller.M_I.WB_Ack |      123767     12.54%     12.54% |      123027     12.46%     25.00% |      123344     12.50%     37.50% |      123741     12.54%     50.03% |      123351     12.50%     62.53% |      123539     12.51%     75.04% |      123270     12.49%     87.53% |      123094     12.47%    100.00%
system.ruby.L1Cache_Controller.M_I.WB_Ack::total       987133                      
system.ruby.L1Cache_Controller.NP.Ifetch |       28713     12.44%     12.44% |       28997     12.57%     25.01% |       28739     12.45%     37.46% |       28889     12.52%     49.98% |       28882     12.52%     62.50% |       28832     12.49%     74.99% |       28890     12.52%     87.51% |       28822     12.49%    100.00%
system.ruby.L1Cache_Controller.NP.Ifetch::total       230764                      
system.ruby.L1Cache_Controller.NP.Load   |        2342     12.20%     12.20% |        2497     13.01%     25.21% |        2407     12.54%     37.75% |        2415     12.58%     50.34% |        2397     12.49%     62.82% |        2419     12.60%     75.43% |        2346     12.22%     87.65% |        2370     12.35%    100.00%
system.ruby.L1Cache_Controller.NP.Load::total        19193                      
system.ruby.L1Cache_Controller.NP.Store  |       26459     12.46%     12.46% |       26591     12.53%     24.99% |       26422     12.45%     37.44% |       26560     12.51%     49.95% |       26570     12.52%     62.47% |       26500     12.48%     74.95% |       26632     12.55%     87.50% |       26538     12.50%    100.00%
system.ruby.L1Cache_Controller.NP.Store::total       212272                      
system.ruby.L1Cache_Controller.S.Ifetch  |         203     12.41%     12.41% |         232     14.18%     26.59% |         211     12.90%     39.49% |         187     11.43%     50.92% |         189     11.55%     62.47% |         216     13.20%     75.67% |         196     11.98%     87.65% |         202     12.35%    100.00%
system.ruby.L1Cache_Controller.S.Ifetch::total         1636                      
system.ruby.L1Cache_Controller.S.Inv     |       24846     12.41%     12.41% |       25289     12.63%     25.03% |       24902     12.43%     37.47% |       25067     12.52%     49.99% |       25043     12.50%     62.49% |       24884     12.43%     74.92% |       25069     12.52%     87.43% |       25167     12.57%    100.00%
system.ruby.L1Cache_Controller.S.Inv::total       200267                      
system.ruby.L1Cache_Controller.S.L1_Replacement |        4466     12.60%     12.60% |        4437     12.52%     25.11% |        4373     12.34%     37.45% |        4488     12.66%     50.11% |        4379     12.35%     62.46% |        4504     12.70%     75.17% |        4432     12.50%     87.67% |        4372     12.33%    100.00%
system.ruby.L1Cache_Controller.S.L1_Replacement::total        35451                      
system.ruby.L1Cache_Controller.S.Load    |           1     20.00%     20.00% |           0      0.00%     20.00% |           2     40.00%     60.00% |           0      0.00%     60.00% |           0      0.00%     60.00% |           1     20.00%     80.00% |           0      0.00%     80.00% |           1     20.00%    100.00%
system.ruby.L1Cache_Controller.S.Load::total            5                      
system.ruby.L1Cache_Controller.S.Load_Last_Touch |           0      0.00%      0.00% |           0      0.00%      0.00% |           2     50.00%     50.00% |           1     25.00%     75.00% |           0      0.00%     75.00% |           1     25.00%    100.00% |           0      0.00%    100.00% |           0      0.00%    100.00%
system.ruby.L1Cache_Controller.S.Load_Last_Touch::total            4                      
system.ruby.L1Cache_Controller.S.Store   |          16     28.57%     28.57% |           8     14.29%     42.86% |           4      7.14%     50.00% |           2      3.57%     53.57% |           5      8.93%     62.50% |           8     14.29%     76.79% |           7     12.50%     89.29% |           6     10.71%    100.00%
system.ruby.L1Cache_Controller.S.Store::total           56                      
system.ruby.L1Cache_Controller.S.Store_Last_Touch |           0      0.00%      0.00% |           5     31.25%     31.25% |           0      0.00%     31.25% |           1      6.25%     37.50% |           2     12.50%     50.00% |           3     18.75%     68.75% |           2     12.50%     81.25% |           3     18.75%    100.00%
system.ruby.L1Cache_Controller.S.Store_Last_Touch::total           16                      
system.ruby.L1Cache_Controller.SINK_WB_ACK.Inv |        5004     12.35%     12.35% |        5033     12.42%     24.77% |        5018     12.38%     37.15% |        5052     12.47%     49.62% |        5113     12.62%     62.24% |        5232     12.91%     75.15% |        5030     12.41%     87.56% |        5039     12.44%    100.00%
system.ruby.L1Cache_Controller.SINK_WB_ACK.Inv::total        40521                      
system.ruby.L1Cache_Controller.SINK_WB_ACK.L1_Replacement |        1899     12.19%     12.19% |        1950     12.52%     24.71% |        1961     12.59%     37.30% |        1908     12.25%     49.55% |        1902     12.21%     61.77% |        1985     12.74%     74.51% |        1961     12.59%     87.10% |        2009     12.90%    100.00%
system.ruby.L1Cache_Controller.SINK_WB_ACK.L1_Replacement::total        15575                      
system.ruby.L1Cache_Controller.SINK_WB_ACK.Load |           2     13.33%     13.33% |           0      0.00%     13.33% |           3     20.00%     33.33% |           0      0.00%     33.33% |           5     33.33%     66.67% |           2     13.33%     80.00% |           1      6.67%     86.67% |           2     13.33%    100.00%
system.ruby.L1Cache_Controller.SINK_WB_ACK.Load::total           15                      
system.ruby.L1Cache_Controller.SINK_WB_ACK.Load_Last_Touch |        1908     12.50%     12.50% |        1903     12.46%     24.96% |        1922     12.59%     37.54% |        1970     12.90%     50.45% |        1881     12.32%     62.76% |        1840     12.05%     74.81% |        1948     12.76%     87.57% |        1898     12.43%    100.00%
system.ruby.L1Cache_Controller.SINK_WB_ACK.Load_Last_Touch::total        15270                      
system.ruby.L1Cache_Controller.SINK_WB_ACK.Store |          21     11.86%     11.86% |          16      9.04%     20.90% |          32     18.08%     38.98% |          25     14.12%     53.11% |          31     17.51%     70.62% |          19     10.73%     81.36% |          12      6.78%     88.14% |          21     11.86%    100.00%
system.ruby.L1Cache_Controller.SINK_WB_ACK.Store::total          177                      
system.ruby.L1Cache_Controller.SINK_WB_ACK.Store_Last_Touch |       14083     12.56%     12.56% |       13947     12.44%     25.00% |       14134     12.60%     37.60% |       13853     12.35%     49.95% |       14036     12.52%     62.47% |       14171     12.64%     75.11% |       13899     12.39%     87.50% |       14012     12.50%    100.00%
system.ruby.L1Cache_Controller.SINK_WB_ACK.Store_Last_Touch::total       112135                      
system.ruby.L1Cache_Controller.SINK_WB_ACK.WB_Ack |      126358     12.50%     12.50% |      126219     12.48%     24.98% |      126285     12.49%     37.47% |      126116     12.47%     49.95% |      126574     12.52%     62.47% |      126493     12.51%     74.98% |      126293     12.49%     87.47% |      126670     12.53%    100.00%
system.ruby.L1Cache_Controller.SINK_WB_ACK.WB_Ack::total      1011008                      
system.ruby.L1Cache_Controller.SM.Ack    |        6730     12.73%     12.73% |        6486     12.27%     25.00% |        6550     12.39%     37.39% |        6688     12.65%     50.05% |        6640     12.56%     62.61% |        6585     12.46%     75.07% |        6619     12.52%     87.59% |        6561     12.41%    100.00%
system.ruby.L1Cache_Controller.SM.Ack::total        52859                      
system.ruby.L1Cache_Controller.SM.Ack_all |          38     15.57%     15.57% |          28     11.48%     27.05% |          34     13.93%     40.98% |          30     12.30%     53.28% |          29     11.89%     65.16% |          27     11.07%     76.23% |          32     13.11%     89.34% |          26     10.66%    100.00%
system.ruby.L1Cache_Controller.SM.Ack_all::total          244                      
system.ruby.L1Cache_Controller.SM.Ack_all_Last_Touch |       18098     12.51%     12.51% |       17998     12.44%     24.95% |       18044     12.47%     37.42% |       18287     12.64%     50.07% |       18234     12.60%     62.67% |       17973     12.42%     75.09% |       18004     12.45%     87.54% |       18027     12.46%    100.00%
system.ruby.L1Cache_Controller.SM.Ack_all_Last_Touch::total       144665                      
system.ruby.L1Cache_Controller.SM.Inv    |           5     16.67%     16.67% |           5     16.67%     33.33% |           1      3.33%     36.67% |           1      3.33%     40.00% |           2      6.67%     46.67% |           5     16.67%     63.33% |           5     16.67%     80.00% |           6     20.00%    100.00%
system.ruby.L1Cache_Controller.SM.Inv::total           30                      
system.ruby.L1Cache_Controller.Store     |       26674     12.47%     12.47% |       26804     12.53%     25.00% |       26628     12.45%     37.45% |       26749     12.51%     49.96% |       26784     12.52%     62.48% |       26685     12.48%     74.96% |       26827     12.54%     87.50% |       26739     12.50%    100.00%
system.ruby.L1Cache_Controller.Store::total       213890                      
system.ruby.L1Cache_Controller.Store_Last_Touch |      259772     12.53%     12.53% |      258580     12.47%     25.00% |      259356     12.51%     37.51% |      258818     12.48%     50.00% |      259162     12.50%     62.50% |      259609     12.52%     75.02% |      258763     12.48%     87.50% |      259090     12.50%    100.00%
system.ruby.L1Cache_Controller.Store_Last_Touch::total      2073150                      
system.ruby.L1Cache_Controller.WB_Ack    |      250125     12.52%     12.52% |      249246     12.47%     24.99% |      249629     12.49%     37.48% |      249857     12.50%     49.99% |      249925     12.51%     62.50% |      250032     12.51%     75.01% |      249563     12.49%     87.50% |      249764     12.50%    100.00%
system.ruby.L1Cache_Controller.WB_Ack::total      1998141                      
system.ruby.L2Cache_Controller.Exclusive_Unblock      2000199      0.00%      0.00%
system.ruby.L2Cache_Controller.IM.L1_GETX           30      0.00%      0.00%
system.ruby.L2Cache_Controller.IM.Mem_Data          102      0.00%      0.00%
system.ruby.L2Cache_Controller.L1_GETS         289499      0.00%      0.00%
system.ruby.L2Cache_Controller.L1_GETX        2323372      0.00%      0.00%
system.ruby.L2Cache_Controller.L1_GET_INSTR       287219      0.00%      0.00%
system.ruby.L2Cache_Controller.L1_PUTX        1353694      0.00%      0.00%
system.ruby.L2Cache_Controller.L1_PUTX_old       956604      0.00%      0.00%
system.ruby.L2Cache_Controller.L1_UPGRADE           54      0.00%      0.00%
system.ruby.L2Cache_Controller.M.L1_GETS       111316      0.00%      0.00%
system.ruby.L2Cache_Controller.M.L1_GETX       764716      0.00%      0.00%
system.ruby.L2Cache_Controller.M.L1_GET_INSTR       111109      0.00%      0.00%
system.ruby.L2Cache_Controller.M.L1_PUTX_old          884      0.00%      0.00%
system.ruby.L2Cache_Controller.MT.L1_GETS       100532      0.00%      0.00%
system.ruby.L2Cache_Controller.MT.L1_GETX       812570      0.00%      0.00%
system.ruby.L2Cache_Controller.MT.L1_GET_INSTR        99906      0.00%      0.00%
system.ruby.L2Cache_Controller.MT.L1_PUTX       987164      0.00%      0.00%
system.ruby.L2Cache_Controller.MT.L1_PUTX_old       807050      0.00%      0.00%
system.ruby.L2Cache_Controller.MT_IB.L1_GETS           25      0.00%      0.00%
system.ruby.L2Cache_Controller.MT_IB.L1_GETX          150      0.00%      0.00%
system.ruby.L2Cache_Controller.MT_IB.L1_GET_INSTR           24      0.00%      0.00%
system.ruby.L2Cache_Controller.MT_IB.L1_PUTX          390      0.00%      0.00%
system.ruby.L2Cache_Controller.MT_IB.L1_PUTX_old          126      0.00%      0.00%
system.ruby.L2Cache_Controller.MT_IB.WB_Data        14186      0.00%      0.00%
system.ruby.L2Cache_Controller.MT_IIB.L1_GETS         2087      0.00%      0.00%
system.ruby.L2Cache_Controller.MT_IIB.L1_GETX        16638      0.00%      0.00%
system.ruby.L2Cache_Controller.MT_IIB.L1_GET_INSTR         2015      0.00%      0.00%
system.ruby.L2Cache_Controller.MT_IIB.L1_PUTX        22279      0.00%      0.00%
system.ruby.L2Cache_Controller.MT_IIB.L1_PUTX_old        16227      0.00%      0.00%
system.ruby.L2Cache_Controller.MT_IIB.Unblock        14186      0.00%      0.00%
system.ruby.L2Cache_Controller.MT_IIB.WB_Data       186251      0.00%      0.00%
system.ruby.L2Cache_Controller.MT_MB.Exclusive_Unblock      1577359      0.00%      0.00%
system.ruby.L2Cache_Controller.MT_MB.L1_GETS        30140      0.00%      0.00%
system.ruby.L2Cache_Controller.MT_MB.L1_GETX       218740      0.00%      0.00%
system.ruby.L2Cache_Controller.MT_MB.L1_GET_INSTR        29918      0.00%      0.00%
system.ruby.L2Cache_Controller.MT_MB.L1_PUTX       160396      0.00%      0.00%
system.ruby.L2Cache_Controller.MT_MB.L1_PUTX_old        89468      0.00%      0.00%
system.ruby.L2Cache_Controller.MT_SB.L1_GETS         1034      0.00%      0.00%
system.ruby.L2Cache_Controller.MT_SB.L1_GETX         7862      0.00%      0.00%
system.ruby.L2Cache_Controller.MT_SB.L1_GET_INSTR         1014      0.00%      0.00%
system.ruby.L2Cache_Controller.MT_SB.L1_PUTX        18812      0.00%      0.00%
system.ruby.L2Cache_Controller.MT_SB.L1_PUTX_old         6146      0.00%      0.00%
system.ruby.L2Cache_Controller.MT_SB.L1_UPGRADE            1      0.00%      0.00%
system.ruby.L2Cache_Controller.MT_SB.Unblock       186250      0.00%      0.00%
system.ruby.L2Cache_Controller.Mem_Data           102      0.00%      0.00%
system.ruby.L2Cache_Controller.NP.L1_GETX          102      0.00%      0.00%
system.ruby.L2Cache_Controller.SS.L1_GETS        38209      0.00%      0.00%
system.ruby.L2Cache_Controller.SS.L1_GETX       422805      0.00%      0.00%
system.ruby.L2Cache_Controller.SS.L1_GET_INSTR        37259      0.00%      0.00%
system.ruby.L2Cache_Controller.SS.L1_PUTX       154688      0.00%      0.00%
system.ruby.L2Cache_Controller.SS.L1_PUTX_old        22928      0.00%      0.00%
system.ruby.L2Cache_Controller.SS.L1_UPGRADE           42      0.00%      0.00%
system.ruby.L2Cache_Controller.SS_MB.Exclusive_Unblock       422840      0.00%      0.00%
system.ruby.L2Cache_Controller.SS_MB.L1_GETS         6156      0.00%      0.00%
system.ruby.L2Cache_Controller.SS_MB.L1_GETX        79759      0.00%      0.00%
system.ruby.L2Cache_Controller.SS_MB.L1_GET_INSTR         5974      0.00%      0.00%
system.ruby.L2Cache_Controller.SS_MB.L1_PUTX         9965      0.00%      0.00%
system.ruby.L2Cache_Controller.SS_MB.L1_PUTX_old        13775      0.00%      0.00%
system.ruby.L2Cache_Controller.SS_MB.L1_UPGRADE           11      0.00%      0.00%
system.ruby.L2Cache_Controller.Unblock         200436      0.00%      0.00%
system.ruby.L2Cache_Controller.WB_Data         200437      0.00%      0.00%
system.ruby.LD.hit_latency_hist_seqr::bucket_size           16                      
system.ruby.LD.hit_latency_hist_seqr::max_bucket          159                      
system.ruby.LD.hit_latency_hist_seqr::samples           40                      
system.ruby.LD.hit_latency_hist_seqr::mean    13.675000                      
system.ruby.LD.hit_latency_hist_seqr::gmean     3.195162                      
system.ruby.LD.hit_latency_hist_seqr::stdev    34.062076                      
system.ruby.LD.hit_latency_hist_seqr     |          36     90.00%     90.00% |           0      0.00%     90.00% |           0      0.00%     90.00% |           0      0.00%     90.00% |           0      0.00%     90.00% |           0      0.00%     90.00% |           1      2.50%     92.50% |           3      7.50%    100.00% |           0      0.00%    100.00% |           0      0.00%    100.00%
system.ruby.LD.hit_latency_hist_seqr::total           40                      
system.ruby.LD.latency_hist_seqr::bucket_size         2048                      
system.ruby.LD.latency_hist_seqr::max_bucket        20479                      
system.ruby.LD.latency_hist_seqr::samples       250094                      
system.ruby.LD.latency_hist_seqr::mean    3438.448931                      
system.ruby.LD.latency_hist_seqr::gmean   3317.781396                      
system.ruby.LD.latency_hist_seqr::stdev    989.099138                      
system.ruby.LD.latency_hist_seqr         |        3849      1.54%      1.54% |      206969     82.76%     84.30% |       31747     12.69%     96.99% |        7284      2.91%     99.90% |         240      0.10%    100.00% |           5      0.00%    100.00% |           0      0.00%    100.00% |           0      0.00%    100.00% |           0      0.00%    100.00% |           0      0.00%    100.00%
system.ruby.LD.latency_hist_seqr::total        250094                      
system.ruby.LD.miss_latency_hist_seqr::bucket_size         2048                      
system.ruby.LD.miss_latency_hist_seqr::max_bucket        20479                      
system.ruby.LD.miss_latency_hist_seqr::samples       250054                      
system.ruby.LD.miss_latency_hist_seqr::mean  3438.996777                      
system.ruby.LD.miss_latency_hist_seqr::gmean  3321.469586                      
system.ruby.LD.miss_latency_hist_seqr::stdev   988.229157                      
system.ruby.LD.miss_latency_hist_seqr    |        3809      1.52%      1.52% |      206969     82.77%     84.29% |       31747     12.70%     96.99% |        7284      2.91%     99.90% |         240      0.10%    100.00% |           5      0.00%    100.00% |           0      0.00%    100.00% |           0      0.00%    100.00% |           0      0.00%    100.00% |           0      0.00%    100.00%
system.ruby.LD.miss_latency_hist_seqr::total       250054                      
system.ruby.ST.hit_latency_hist_seqr::bucket_size           16                      
system.ruby.ST.hit_latency_hist_seqr::max_bucket          159                      
system.ruby.ST.hit_latency_hist_seqr::samples          253                      
system.ruby.ST.hit_latency_hist_seqr::mean    14.529644                      
system.ruby.ST.hit_latency_hist_seqr::gmean     3.447275                      
system.ruby.ST.hit_latency_hist_seqr::stdev    34.073626                      
system.ruby.ST.hit_latency_hist_seqr     |         225     88.93%     88.93% |           0      0.00%     88.93% |           0      0.00%     88.93% |           0      0.00%     88.93% |           0      0.00%     88.93% |           0      0.00%     88.93% |          15      5.93%     94.86% |          13      5.14%    100.00% |           0      0.00%    100.00% |           0      0.00%    100.00%
system.ruby.ST.hit_latency_hist_seqr::total          253                      
system.ruby.ST.latency_hist_seqr::bucket_size         2048                      
system.ruby.ST.latency_hist_seqr::max_bucket        20479                      
system.ruby.ST.latency_hist_seqr::samples      2000454                      
system.ruby.ST.latency_hist_seqr::mean    3411.190041                      
system.ruby.ST.latency_hist_seqr::gmean   3297.441444                      
system.ruby.ST.latency_hist_seqr::stdev    959.348658                      
system.ruby.ST.latency_hist_seqr         |       31605      1.58%      1.58% |     1679471     83.95%     85.53% |      233729     11.68%     97.22% |       53659      2.68%     99.90% |        1957      0.10%    100.00% |          31      0.00%    100.00% |           2      0.00%    100.00% |           0      0.00%    100.00% |           0      0.00%    100.00% |           0      0.00%    100.00%
system.ruby.ST.latency_hist_seqr::total       2000454                      
system.ruby.ST.miss_latency_hist_seqr::bucket_size         2048                      
system.ruby.ST.miss_latency_hist_seqr::max_bucket        20479                      
system.ruby.ST.miss_latency_hist_seqr::samples      2000201                      
system.ruby.ST.miss_latency_hist_seqr::mean  3411.619675                      
system.ruby.ST.miss_latency_hist_seqr::gmean  3300.305270                      
system.ruby.ST.miss_latency_hist_seqr::stdev   958.648323                      
system.ruby.ST.miss_latency_hist_seqr    |       31352      1.57%      1.57% |     1679471     83.97%     85.53% |      233729     11.69%     97.22% |       53659      2.68%     99.90% |        1957      0.10%    100.00% |          31      0.00%    100.00% |           2      0.00%    100.00% |           0      0.00%    100.00% |           0      0.00%    100.00% |           0      0.00%    100.00%
system.ruby.ST.miss_latency_hist_seqr::total      2000201                      
system.ruby.clk_domain.clock                        1                       # Clock period in ticks
system.ruby.delayHist::bucket_size                 16                       # delay histogram for all message
system.ruby.delayHist::max_bucket                 159                       # delay histogram for all message
system.ruby.delayHist::samples               13683241                       # delay histogram for all message
system.ruby.delayHist::mean                  4.514379                       # delay histogram for all message
system.ruby.delayHist::stdev                 8.718889                       # delay histogram for all message
system.ruby.delayHist                    |    12278065     89.73%     89.73% |     1086552      7.94%     97.67% |      247507      1.81%     99.48% |       55870      0.41%     99.89% |       12103      0.09%     99.98% |        2482      0.02%    100.00% |         499      0.00%    100.00% |         128      0.00%    100.00% |          29      0.00%    100.00% |           6      0.00%    100.00% # delay histogram for all message
system.ruby.delayHist::total                 13683241                       # delay histogram for all message
system.ruby.delayVCHist.vnet_0::bucket_size           16                       # delay histogram for vnet_0
system.ruby.delayVCHist.vnet_0::max_bucket          159                       # delay histogram for vnet_0
system.ruby.delayVCHist.vnet_0::samples       6697389                       # delay histogram for vnet_0
system.ruby.delayVCHist.vnet_0::mean         6.884476                       # delay histogram for vnet_0
system.ruby.delayVCHist.vnet_0::stdev       10.950725                       # delay histogram for vnet_0
[...]
system.ruby.network.routers08.port_buffers03.avg_buf_msgs     0.000092                       # Average number of messages in buffer
system.ruby.network.routers08.port_buffers03.avg_stall_time     6.002327                       # Average number of cycles messages are stalled in this MB
system.ruby.network.routers08.port_buffers04.avg_buf_msgs     9.699471                       # Average number of messages in buffer
system.ruby.network.routers08.port_buffers04.avg_stall_time   175.123453                       # Average number of cycles messages are stalled in this MB
system.ruby.network.routers08.port_buffers05.avg_buf_msgs     0.784141                       # Average number of messages in buffer
system.ruby.network.routers08.port_buffers05.avg_stall_time    36.531045                       # Average number of cycles messages are stalled in this MB
system.ruby.network.routers08.pwrStateResidencyTicks::UNDEFINED     76395661                       # Cumulative time (in ticks) in various power states
system.ruby.network.routers08.throttle0.link_utilization    16.026957                      
system.ruby.network.routers08.throttle0.msg_bytes.Control::0     19988600                      
system.ruby.network.routers08.throttle0.msg_bytes.Response_Control::2     17605088                      
system.ruby.network.routers08.throttle0.msg_bytes.Response_Data::1     14438808                      
system.ruby.network.routers08.throttle0.msg_bytes.Writeback_Data::0    143869896                      
system.ruby.network.routers08.throttle0.msg_count.Control::0      2498575                      
system.ruby.network.routers08.throttle0.msg_count.Response_Control::2      2200636                      
system.ruby.network.routers08.throttle0.msg_count.Response_Data::1       200539                      
system.ruby.network.routers08.throttle0.msg_count.Writeback_Data::0      1998193                      
system.ruby.network.routers08.throttle1.link_utilization    10.991205                      
system.ruby.network.routers08.throttle1.msg_bytes.Control::0          816                      
system.ruby.network.routers08.throttle1.msg_bytes.Request_Control::2     11407096                      
system.ruby.network.routers08.throttle1.msg_bytes.Response_Control::1     15985592                      
system.ruby.network.routers08.throttle1.msg_bytes.Response_Data::1    106955352                      
system.ruby.network.routers08.throttle1.msg_count.Control::0          102                      
system.ruby.network.routers08.throttle1.msg_count.Request_Control::2      1425887                      
system.ruby.network.routers08.throttle1.msg_count.Response_Control::1      1998199                      
system.ruby.network.routers08.throttle1.msg_count.Response_Data::1      1485491                      
system.ruby.network.routers09.msg_bytes.Control::0          816                      
system.ruby.network.routers09.msg_bytes.Response_Data::1         7344                      
system.ruby.network.routers09.msg_count.Control::0          102                      
system.ruby.network.routers09.msg_count.Response_Data::1          102                      
system.ruby.network.routers09.percent_links_utilized     0.000334                      
system.ruby.network.routers09.port_buffers00.avg_buf_msgs     0.000098                       # Average number of messages in buffer
system.ruby.network.routers09.port_buffers00.avg_stall_time    15.013385                       # Average number of cycles messages are stalled in this MB
system.ruby.network.routers09.port_buffers03.avg_buf_msgs     0.000093                       # Average number of messages in buffer
system.ruby.network.routers09.port_buffers03.avg_stall_time     8.004613                       # Average number of cycles messages are stalled in this MB
system.ruby.network.routers09.pwrStateResidencyTicks::UNDEFINED     76395661                       # Cumulative time (in ticks) in various power states
system.ruby.network.routers09.throttle0.link_utilization     0.000067                      
system.ruby.network.routers09.throttle0.msg_bytes.Control::0          816                      
system.ruby.network.routers09.throttle0.msg_count.Control::0          102                      
system.ruby.network.routers09.throttle1.link_utilization     0.000601                      
system.ruby.network.routers09.throttle1.msg_bytes.Response_Data::1         7344                      
system.ruby.network.routers09.throttle1.msg_count.Response_Data::1          102                      
system.ruby.network.routers10.msg_bytes.Control::0     19989560                      
system.ruby.network.routers10.msg_bytes.Request_Control::2     13206600                      
system.ruby.network.routers10.msg_bytes.Response_Control::1     21088072                      
system.ruby.network.routers10.msg_bytes.Response_Control::2     17605088                      
system.ruby.network.routers10.msg_bytes.Response_Data::1    194329584                      
system.ruby.network.routers10.msg_bytes.Writeback_Data::0    143870832                      
system.ruby.network.routers10.msg_count.Control::0      2498695                      
system.ruby.network.routers10.msg_count.Request_Control::2      1650825                      
system.ruby.network.routers10.msg_count.Response_Control::1      2636009                      
system.ruby.network.routers10.msg_count.Response_Control::2      2200636                      
system.ruby.network.routers10.msg_count.Response_Data::1      2699022                      
system.ruby.network.routers10.msg_count.Writeback_Data::0      1998206                      
system.ruby.network.routers10.percent_links_utilized     3.354982                      
system.ruby.network.routers10.port_buffers01.avg_buf_msgs     0.225936                       # Average number of messages in buffer
system.ruby.network.routers10.port_buffers01.avg_stall_time   302.202362                       # Average number of cycles messages are stalled in this MB
system.ruby.network.routers10.port_buffers02.avg_buf_msgs     0.051540                       # Average number of messages in buffer
system.ruby.network.routers10.port_buffers02.avg_stall_time   104.001867                       # Average number of cycles messages are stalled in this MB
system.ruby.network.routers10.port_buffers04.avg_buf_msgs     0.225685                       # Average number of messages in buffer
system.ruby.network.routers10.port_buffers04.avg_stall_time   302.337061                       # Average number of cycles messages are stalled in this MB
system.ruby.network.routers10.port_buffers05.avg_buf_msgs     0.051810                       # Average number of messages in buffer
system.ruby.network.routers10.port_buffers05.avg_stall_time   103.688158                       # Average number of cycles messages are stalled in this MB
system.ruby.network.routers10.port_buffers07.avg_buf_msgs     0.226271                       # Average number of messages in buffer
system.ruby.network.routers10.port_buffers07.avg_stall_time   302.677888                       # Average number of cycles messages are stalled in this MB
system.ruby.network.routers10.port_buffers08.avg_buf_msgs     0.051140                       # Average number of messages in buffer
system.ruby.network.routers10.port_buffers08.avg_stall_time   103.882770                       # Average number of cycles messages are stalled in this MB
system.ruby.network.routers10.port_buffers10.avg_buf_msgs     0.225796                       # Average number of messages in buffer
system.ruby.network.routers10.port_buffers10.avg_stall_time   302.971222                       # Average number of cycles messages are stalled in this MB
system.ruby.network.routers10.port_buffers11.avg_buf_msgs     0.051403                       # Average number of messages in buffer
system.ruby.network.routers10.port_buffers11.avg_stall_time   103.792818                       # Average number of cycles messages are stalled in this MB
system.ruby.network.routers10.port_buffers13.avg_buf_msgs     0.226872                       # Average number of messages in buffer
system.ruby.network.routers10.port_buffers13.avg_stall_time   302.764700                       # Average number of cycles messages are stalled in this MB
system.ruby.network.routers10.port_buffers14.avg_buf_msgs     0.051737                       # Average number of messages in buffer
system.ruby.network.routers10.port_buffers14.avg_stall_time   103.304339                       # Average number of cycles messages are stalled in this MB
system.ruby.network.routers10.port_buffers16.avg_buf_msgs     0.227041                       # Average number of messages in buffer
system.ruby.network.routers10.port_buffers16.avg_stall_time   303.012211                       # Average number of cycles messages are stalled in this MB
system.ruby.network.routers10.port_buffers17.avg_buf_msgs     0.051459                       # Average number of messages in buffer
system.ruby.network.routers10.port_buffers17.avg_stall_time   103.800738                       # Average number of cycles messages are stalled in this MB
system.ruby.network.routers10.port_buffers19.avg_buf_msgs     0.225638                       # Average number of messages in buffer
system.ruby.network.routers10.port_buffers19.avg_stall_time   302.432155                       # Average number of cycles messages are stalled in this MB
system.ruby.network.routers10.port_buffers20.avg_buf_msgs     0.051464                       # Average number of messages in buffer
system.ruby.network.routers10.port_buffers20.avg_stall_time   103.954040                       # Average number of cycles messages are stalled in this MB
system.ruby.network.routers10.port_buffers22.avg_buf_msgs     0.226184                       # Average number of messages in buffer
system.ruby.network.routers10.port_buffers22.avg_stall_time   303.194527                       # Average number of cycles messages are stalled in this MB
system.ruby.network.routers10.port_buffers23.avg_buf_msgs     0.052413                       # Average number of messages in buffer
system.ruby.network.routers10.port_buffers23.avg_stall_time   103.792393                       # Average number of cycles messages are stalled in this MB
system.ruby.network.routers10.port_buffers24.avg_buf_msgs    45.284447                       # Average number of messages in buffer
system.ruby.network.routers10.port_buffers24.avg_stall_time   788.160757                       # Average number of cycles messages are stalled in this MB
system.ruby.network.routers10.port_buffers25.avg_buf_msgs     0.048594                       # Average number of messages in buffer
system.ruby.network.routers10.port_buffers25.avg_stall_time    82.388599                       # Average number of cycles messages are stalled in this MB
system.ruby.network.routers10.port_buffers26.avg_buf_msgs     1.799066                       # Average number of messages in buffer
system.ruby.network.routers10.port_buffers26.avg_stall_time    84.249293                       # Average number of cycles messages are stalled in this MB
system.ruby.network.routers10.port_buffers27.avg_buf_msgs     0.000062                       # Average number of messages in buffer
system.ruby.network.routers10.port_buffers27.avg_stall_time    11.008035                       # Average number of cycles messages are stalled in this MB
system.ruby.network.routers10.pwrStateResidencyTicks::UNDEFINED     76395661                       # Cumulative time (in ticks) in various power states
system.ruby.network.routers10.throttle0.link_utilization     2.191681                      
system.ruby.network.routers10.throttle0.msg_bytes.Request_Control::2      1646632                      
system.ruby.network.routers10.throttle0.msg_bytes.Response_Control::1      2645976                      
system.ruby.network.routers10.throttle0.msg_bytes.Response_Data::1     22496976                      
system.ruby.network.routers10.throttle0.msg_count.Request_Control::2       205829                      
system.ruby.network.routers10.throttle0.msg_count.Response_Control::1       330747                      
system.ruby.network.routers10.throttle0.msg_count.Response_Data::1       312458                      
system.ruby.network.routers10.throttle1.link_utilization     2.189573                      
system.ruby.network.routers10.throttle1.msg_bytes.Request_Control::2      1655208                      
system.ruby.network.routers10.throttle1.msg_bytes.Response_Control::1      2630280                      
system.ruby.network.routers10.throttle1.msg_bytes.Response_Data::1     22478328                      
system.ruby.network.routers10.throttle1.msg_count.Request_Control::2       206901                      
system.ruby.network.routers10.throttle1.msg_count.Response_Control::1       328785                      
system.ruby.network.routers10.throttle1.msg_count.Response_Data::1       312199                      
system.ruby.network.routers10.throttle2.link_utilization     2.188504                      
system.ruby.network.routers10.throttle2.msg_bytes.Request_Control::2      1648752                      
system.ruby.network.routers10.throttle2.msg_bytes.Response_Control::1      2633176                      
system.ruby.network.routers10.throttle2.msg_bytes.Response_Data::1     22468824                      
system.ruby.network.routers10.throttle2.msg_count.Request_Control::2       206094                      
system.ruby.network.routers10.throttle2.msg_count.Response_Control::1       329147                      
system.ruby.network.routers10.throttle2.msg_count.Response_Data::1       312067                      
system.ruby.network.routers10.throttle3.link_utilization     2.191053                      
system.ruby.network.routers10.throttle3.msg_bytes.Request_Control::2      1648064                      
system.ruby.network.routers10.throttle3.msg_bytes.Response_Control::1      2641480                      
system.ruby.network.routers10.throttle3.msg_bytes.Response_Data::1     22492368                      
system.ruby.network.routers10.throttle3.msg_count.Request_Control::2       206008                      
system.ruby.network.routers10.throttle3.msg_count.Response_Control::1       330185                      
system.ruby.network.routers10.throttle3.msg_count.Response_Data::1       312394                      
system.ruby.network.routers10.throttle4.link_utilization     2.191244                      
system.ruby.network.routers10.throttle4.msg_bytes.Request_Control::2      1650528                      
system.ruby.network.routers10.throttle4.msg_bytes.Response_Control::1      2637392                      
system.ruby.network.routers10.throttle4.msg_bytes.Response_Data::1     22496328                      
system.ruby.network.routers10.throttle4.msg_count.Request_Control::2       206316                      
system.ruby.network.routers10.throttle4.msg_count.Response_Control::1       329674                      
system.ruby.network.routers10.throttle4.msg_count.Response_Data::1       312449                      
system.ruby.network.routers10.throttle5.link_utilization     2.190901                      
system.ruby.network.routers10.throttle5.msg_bytes.Request_Control::2      1651936                      
system.ruby.network.routers10.throttle5.msg_bytes.Response_Control::1      2633448                      
system.ruby.network.routers10.throttle5.msg_bytes.Response_Data::1     22494672                      
system.ruby.network.routers10.throttle5.msg_count.Request_Control::2       206492                      
system.ruby.network.routers10.throttle5.msg_count.Response_Control::1       329181                      
system.ruby.network.routers10.throttle5.msg_count.Response_Data::1       312426                      
system.ruby.network.routers10.throttle6.link_utilization     2.189782                      
system.ruby.network.routers10.throttle6.msg_bytes.Request_Control::2      1651664                      
system.ruby.network.routers10.throttle6.msg_bytes.Response_Control::1      2631344                      
system.ruby.network.routers10.throttle6.msg_bytes.Response_Data::1     22483368                      
system.ruby.network.routers10.throttle6.msg_count.Request_Control::2       206458                      
system.ruby.network.routers10.throttle6.msg_count.Response_Control::1       328918                      
system.ruby.network.routers10.throttle6.msg_count.Response_Data::1       312269                      
system.ruby.network.routers10.throttle7.link_utilization     2.189973                      
system.ruby.network.routers10.throttle7.msg_bytes.Request_Control::2      1653816                      
system.ruby.network.routers10.throttle7.msg_bytes.Response_Control::1      2634976                      
system.ruby.network.routers10.throttle7.msg_bytes.Response_Data::1     22479912                      
system.ruby.network.routers10.throttle7.msg_count.Request_Control::2       206727                      
system.ruby.network.routers10.throttle7.msg_count.Response_Control::1       329372                      
system.ruby.network.routers10.throttle7.msg_count.Response_Data::1       312221                      
system.ruby.network.routers10.throttle8.link_utilization    16.027045                      
system.ruby.network.routers10.throttle8.msg_bytes.Control::0     19988744                      
system.ruby.network.routers10.throttle8.msg_bytes.Response_Control::2     17605088                      
system.ruby.network.routers10.throttle8.msg_bytes.Response_Data::1     14438808                      
system.ruby.network.routers10.throttle8.msg_bytes.Writeback_Data::0    143870832                      
system.ruby.network.routers10.throttle8.msg_count.Control::0      2498593                      
system.ruby.network.routers10.throttle8.msg_count.Response_Control::2      2200636                      
system.ruby.network.routers10.throttle8.msg_count.Response_Data::1       200539                      
system.ruby.network.routers10.throttle8.msg_count.Writeback_Data::0      1998206                      
system.ruby.network.routers10.throttle9.link_utilization     0.000067                      
system.ruby.network.routers10.throttle9.msg_bytes.Control::0          816                      
system.ruby.network.routers10.throttle9.msg_count.Control::0          102                      
system.ruby.outstanding_req_hist_seqr::bucket_size            2                      
system.ruby.outstanding_req_hist_seqr::max_bucket           19                      
system.ruby.outstanding_req_hist_seqr::samples      2500569                      
system.ruby.outstanding_req_hist_seqr::mean    14.146416                      
system.ruby.outstanding_req_hist_seqr::gmean    14.014333                      
system.ruby.outstanding_req_hist_seqr::stdev     1.813775                      
system.ruby.outstanding_req_hist_seqr    |           8      0.00%      0.00% |          37      0.00%      0.00% |         506      0.02%      0.02% |        6394      0.26%      0.28% |       43492      1.74%      2.02% |      185531      7.42%      9.44% |      523203     20.92%     30.36% |     1036002     41.43%     71.79% |      705396     28.21%    100.00% |           0      0.00%    100.00%
system.ruby.outstanding_req_hist_seqr::total      2500569                      
system.ruby.pwrStateResidencyTicks::UNDEFINED     76395661                       # Cumulative time (in ticks) in various power states
system.sys_port_proxy.pwrStateResidencyTicks::UNDEFINED     76395661                       # Cumulative time (in ticks) in various power states
system.voltage_domain.voltage                       1                       # Voltage in Volts

---------- End Simulation Statistics   ----------
