
---------- Begin Simulation Statistics ----------
final_tick                                  379482531                       # Number of ticks from beginning of simulation (restored from checkpoints and never reset)
host_mem_usage                                 889980                       # Number of bytes of host memory used
host_seconds                                   228.42                       # Real time elapsed on the host
host_tick_rate                                1661359                       # Simulator tick rate (ticks/s)
sim_freq                                   1000000000                       # Frequency of simulated ticks
sim_seconds                                  0.379483                       # Number of seconds simulated
sim_ticks                                   379482531                       # Number of ticks simulated
system.clk_domain.clock                             1                       # Clock period in ticks
system.cpu.pwrStateResidencyTicks::UNDEFINED    379482531                       # Cumulative time (in ticks) in various power states
system.mem_ctrls.avgBusLat                       5.00                       # Average bus latency per DRAM burst
system.mem_ctrls.avgGap                        180.89                       # Average gap between requests
system.mem_ctrls.avgMemAccLat                   33.38                       # Average memory access latency per DRAM burst
system.mem_ctrls.avgPriority_.ruby.dir_cntrl0::samples   1880360.00                       # Average QoS priority value for accepted requests
system.mem_ctrls.avgQLat                        14.38                       # Average queueing delay per DRAM burst
system.mem_ctrls.avgRdBW                       170.85                       # Average DRAM read bandwidth in MiByte/s
system.mem_ctrls.avgRdBWSys                    194.33                       # Average system read bandwidth in MiByte/s
system.mem_ctrls.avgRdQLen                       1.21                       # Average read queue length when enqueuing
system.mem_ctrls.avgWrBW                       146.27                       # Average achieved write bandwidth in MiByte/s
system.mem_ctrls.avgWrBWSys                    159.47                       # Average system write bandwidth in MiByte/s
system.mem_ctrls.avgWrQLen                      24.78                       # Average write queue length when enqueuing
system.mem_ctrls.busUtil                         2.48                       # Data bus utilization in percentage
system.mem_ctrls.busUtilRead                     1.33                       # Data bus utilization in percentage for reads
system.mem_ctrls.busUtilWrite                    1.14                       # Data bus utilization in percentage for writes
system.mem_ctrls.bw_read::.ruby.dir_cntrl0    194333520                       # Total read bandwidth from this memory (bytes/s)
system.mem_ctrls.bw_read::total             194333520                       # Total read bandwidth from this memory (bytes/s)
system.mem_ctrls.bw_total::.ruby.dir_cntrl0    353802890                       # Total bandwidth to/from this memory (bytes/s)
system.mem_ctrls.bw_total::total            353802890                       # Total bandwidth to/from this memory (bytes/s)
system.mem_ctrls.bw_write::.ruby.dir_cntrl0    159469370                       # Write bandwidth from this memory (bytes/s)
system.mem_ctrls.bw_write::total            159469370                       # Write bandwidth from this memory (bytes/s)
system.mem_ctrls.bytesPerActivate::samples       198953                       # Bytes accessed per row activation
system.mem_ctrls.bytesPerActivate::mean    604.872427                       # Bytes accessed per row activation
system.mem_ctrls.bytesPerActivate::gmean   473.002341                       # Bytes accessed per row activation
system.mem_ctrls.bytesPerActivate::stdev   320.450337                       # Bytes accessed per row activation
system.mem_ctrls.bytesPerActivate::0-127        15500      7.79%      7.79% # Bytes accessed per row activation
system.mem_ctrls.bytesPerActivate::128-255        22194     11.16%     18.95% # Bytes accessed per row activation
system.mem_ctrls.bytesPerActivate::256-383        19080      9.59%     28.54% # Bytes accessed per row activation
system.mem_ctrls.bytesPerActivate::384-511        13635      6.85%     35.39% # Bytes accessed per row activation
system.mem_ctrls.bytesPerActivate::512-639        16527      8.31%     43.70% # Bytes accessed per row activation
system.mem_ctrls.bytesPerActivate::640-767        26910     13.53%     57.22% # Bytes accessed per row activation
system.mem_ctrls.bytesPerActivate::768-895        32119     16.14%     73.37% # Bytes accessed per row activation
system.mem_ctrls.bytesPerActivate::896-1023        24750     12.44%     85.81% # Bytes accessed per row activation
system.mem_ctrls.bytesPerActivate::1024-1151        28238     14.19%    100.00% # Bytes accessed per row activation
system.mem_ctrls.bytesPerActivate::total       198953                       # Bytes accessed per row activation
system.mem_ctrls.bytesReadDRAM               64833664                       # Total number of bytes read from DRAM
system.mem_ctrls.bytesReadSys                73746304                       # Total read bytes from the system interface side
system.mem_ctrls.bytesReadWrQ                 8912640                       # Total number of bytes read from write queue
system.mem_ctrls.bytesWritten                55507712                       # Total number of bytes written to DRAM
system.mem_ctrls.bytesWrittenSys             60515840                       # Total written bytes from the system interface side
system.mem_ctrls.bytes_read::.ruby.dir_cntrl0     73746176                       # Number of bytes read from this memory
system.mem_ctrls.bytes_read::total           73746176                       # Number of bytes read from this memory
system.mem_ctrls.bytes_written::.ruby.dir_cntrl0     60515840                       # Number of bytes written to this memory
system.mem_ctrls.bytes_written::total        60515840                       # Number of bytes written to this memory
system.mem_ctrls.masterReadAccesses::.ruby.dir_cntrl0      1152286                       # Per-master read serviced memory accesses
system.mem_ctrls.masterReadAvgLat::.ruby.dir_cntrl0        29.34                       # Per-master read average memory access latency
system.mem_ctrls.masterReadBytes::.ruby.dir_cntrl0     64833664                       # Per-master bytes read from memory
system.mem_ctrls.masterReadRate::.ruby.dir_cntrl0 170847558.724646538496                       # Per-master bytes read from memory rate (Bytes/sec)
system.mem_ctrls.masterReadTotalLat::.ruby.dir_cntrl0     33812880                       # Per-master read total memory access latency
system.mem_ctrls.masterWriteAccesses::.ruby.dir_cntrl0       945560                       # Per-master write serviced memory accesses
system.mem_ctrls.masterWriteAvgLat::.ruby.dir_cntrl0      9586.82                       # Per-master write average memory access latency
system.mem_ctrls.masterWriteBytes::.ruby.dir_cntrl0     55507712                       # Per-master bytes write to memory
system.mem_ctrls.masterWriteRate::.ruby.dir_cntrl0 146272113.906608253717                       # Per-master bytes write to memory rate (Bytes/sec)
system.mem_ctrls.masterWriteTotalLat::.ruby.dir_cntrl0   9064914385                       # Per-master write total memory access latency
system.mem_ctrls.mergedWrBursts                 78226                       # Number of DRAM write bursts merged with an existing one
system.mem_ctrls.neitherReadNorWriteReqs            0                       # Number of requests that are neither read nor write
system.mem_ctrls.numRdRetry                         0                       # Number of times read queue was full causing retry
system.mem_ctrls.numReadWriteTurnArounds        48655                       # Number of turnarounds from READ to WRITE
system.mem_ctrls.numStayReadState             3001941                       # Number of times bus staying in READ state
system.mem_ctrls.numStayWriteState             821284                       # Number of times bus staying in WRITE state
system.mem_ctrls.numWrRetry                         0                       # Number of times write queue was full causing retry
system.mem_ctrls.numWriteReadTurnArounds        48655                       # Number of turnarounds from WRITE to READ
system.mem_ctrls.num_reads::.ruby.dir_cntrl0      1152284                       # Number of read requests responded to by this memory
system.mem_ctrls.num_reads::total             1152284                       # Number of read requests responded to by this memory
system.mem_ctrls.num_writes::.ruby.dir_cntrl0       945560                       # Number of write requests responded to by this memory
system.mem_ctrls.num_writes::total             945560                       # Number of write requests responded to by this memory
system.mem_ctrls.pageHitRate                    89.42                       # Row buffer hit rate, read and write combined
system.mem_ctrls.peakBW                      12800.00                       # Theoretical peak bandwidth in MiByte/s
system.mem_ctrls.perBankRdBursts::0            302652                       # Per bank write bursts
system.mem_ctrls.perBankRdBursts::1            326199                       # Per bank write bursts
system.mem_ctrls.perBankRdBursts::2            326387                       # Per bank write bursts
system.mem_ctrls.perBankRdBursts::3             57788                       # Per bank write bursts
system.mem_ctrls.perBankRdBursts::4                 0                       # Per bank write bursts
system.mem_ctrls.perBankRdBursts::5                 0                       # Per bank write bursts
system.mem_ctrls.perBankRdBursts::6                 0                       # Per bank write bursts
system.mem_ctrls.perBankRdBursts::7                 0                       # Per bank write bursts
system.mem_ctrls.perBankRdBursts::8                 0                       # Per bank write bursts
system.mem_ctrls.perBankRdBursts::9                 0                       # Per bank write bursts
system.mem_ctrls.perBankRdBursts::10                0                       # Per bank write bursts
system.mem_ctrls.perBankRdBursts::11                0                       # Per bank write bursts
system.mem_ctrls.perBankRdBursts::12                0                       # Per bank write bursts
system.mem_ctrls.perBankRdBursts::13                0                       # Per bank write bursts
system.mem_ctrls.perBankRdBursts::14                0                       # Per bank write bursts
system.mem_ctrls.perBankRdBursts::15                0                       # Per bank write bursts
system.mem_ctrls.perBankWrBursts::0            259938                       # Per bank write bursts
system.mem_ctrls.perBankWrBursts::1            278474                       # Per bank write bursts
system.mem_ctrls.perBankWrBursts::2            278456                       # Per bank write bursts
system.mem_ctrls.perBankWrBursts::3             50440                       # Per bank write bursts
system.mem_ctrls.perBankWrBursts::4                 0                       # Per bank write bursts
system.mem_ctrls.perBankWrBursts::5                 0                       # Per bank write bursts
system.mem_ctrls.perBankWrBursts::6                 0                       # Per bank write bursts
system.mem_ctrls.perBankWrBursts::7                 0                       # Per bank write bursts
system.mem_ctrls.perBankWrBursts::8                 0                       # Per bank write bursts
system.mem_ctrls.perBankWrBursts::9                 0                       # Per bank write bursts
system.mem_ctrls.perBankWrBursts::10                0                       # Per bank write bursts
system.mem_ctrls.perBankWrBursts::11                0                       # Per bank write bursts
system.mem_ctrls.perBankWrBursts::12                0                       # Per bank write bursts
system.mem_ctrls.perBankWrBursts::13                0                       # Per bank write bursts
system.mem_ctrls.perBankWrBursts::14                0                       # Per bank write bursts
system.mem_ctrls.perBankWrBursts::15                0                       # Per bank write bursts
system.mem_ctrls.priorityMaxLatency      0.000935223000                       # per QoS priority maximum request to response latency (s)
system.mem_ctrls.priorityMinLatency      0.000000019000                       # per QoS priority minimum request to response latency (s)
system.mem_ctrls.pwrStateResidencyTicks::UNDEFINED    379482531                       # Cumulative time (in ticks) in various power states
system.mem_ctrls.rdPerTurnAround::samples        48655                       # Reads before turning the bus around for writes
system.mem_ctrls.rdPerTurnAround::mean      20.820347                       # Reads before turning the bus around for writes
system.mem_ctrls.rdPerTurnAround::gmean     20.691604                       # Reads before turning the bus around for writes
system.mem_ctrls.rdPerTurnAround::stdev      2.323361                       # Reads before turning the bus around for writes
system.mem_ctrls.rdPerTurnAround::12-13             5      0.01%      0.01% # Reads before turning the bus around for writes
system.mem_ctrls.rdPerTurnAround::14-15           283      0.58%      0.59% # Reads before turning the bus around for writes
system.mem_ctrls.rdPerTurnAround::16-17          2794      5.74%      6.33% # Reads before turning the bus around for writes
system.mem_ctrls.rdPerTurnAround::18-19         11225     23.07%     29.40% # Reads before turning the bus around for writes
system.mem_ctrls.rdPerTurnAround::20-21         16534     33.98%     63.39% # Reads before turning the bus around for writes
system.mem_ctrls.rdPerTurnAround::22-23         11784     24.22%     87.61% # Reads before turning the bus around for writes
system.mem_ctrls.rdPerTurnAround::24-25          4665      9.59%     97.19% # Reads before turning the bus around for writes
system.mem_ctrls.rdPerTurnAround::26-27          1123      2.31%     99.50% # Reads before turning the bus around for writes
system.mem_ctrls.rdPerTurnAround::28-29           206      0.42%     99.93% # Reads before turning the bus around for writes
system.mem_ctrls.rdPerTurnAround::30-31            29      0.06%     99.99% # Reads before turning the bus around for writes
system.mem_ctrls.rdPerTurnAround::32-33             5      0.01%    100.00% # Reads before turning the bus around for writes
system.mem_ctrls.rdPerTurnAround::34-35             1      0.00%    100.00% # Reads before turning the bus around for writes
system.mem_ctrls.rdPerTurnAround::38-39             1      0.00%    100.00% # Reads before turning the bus around for writes
system.mem_ctrls.rdPerTurnAround::total         48655                       # Reads before turning the bus around for writes
system.mem_ctrls.rdQLenPdf::0                  881534                       # What read queue length does an incoming req see
system.mem_ctrls.rdQLenPdf::1                  131491                       # What read queue length does an incoming req see
system.mem_ctrls.rdQLenPdf::2                       1                       # What read queue length does an incoming req see
system.mem_ctrls.rdQLenPdf::3                       0                       # What read queue length does an incoming req see
system.mem_ctrls.rdQLenPdf::4                       0                       # What read queue length does an incoming req see
system.mem_ctrls.rdQLenPdf::5                       0                       # What read queue length does an incoming req see
system.mem_ctrls.rdQLenPdf::6                       0                       # What read queue length does an incoming req see
system.mem_ctrls.rdQLenPdf::7                       0                       # What read queue length does an incoming req see
system.mem_ctrls.rdQLenPdf::8                       0                       # What read queue length does an incoming req see
system.mem_ctrls.rdQLenPdf::9                       0                       # What read queue length does an incoming req see
system.mem_ctrls.rdQLenPdf::10                      0                       # What read queue length does an incoming req see
system.mem_ctrls.rdQLenPdf::11                      0                       # What read queue length does an incoming req see
system.mem_ctrls.rdQLenPdf::12                      0                       # What read queue length does an incoming req see
system.mem_ctrls.rdQLenPdf::13                      0                       # What read queue length does an incoming req see
system.mem_ctrls.rdQLenPdf::14                      0                       # What read queue length does an incoming req see
system.mem_ctrls.rdQLenPdf::15                      0                       # What read queue length does an incoming req see
system.mem_ctrls.rdQLenPdf::16                      0                       # What read queue length does an incoming req see
system.mem_ctrls.rdQLenPdf::17                      0                       # What read queue length does an incoming req see
system.mem_ctrls.rdQLenPdf::18                      0                       # What read queue length does an incoming req see
system.mem_ctrls.rdQLenPdf::19                      0                       # What read queue length does an incoming req see
system.mem_ctrls.rdQLenPdf::20                      0                       # What read queue length does an incoming req see
system.mem_ctrls.rdQLenPdf::21                      0                       # What read queue length does an incoming req see
system.mem_ctrls.rdQLenPdf::22                      0                       # What read queue length does an incoming req see
system.mem_ctrls.rdQLenPdf::23                      0                       # What read queue length does an incoming req see
system.mem_ctrls.rdQLenPdf::24                      0                       # What read queue length does an incoming req see
system.mem_ctrls.rdQLenPdf::25                      0                       # What read queue length does an incoming req see
system.mem_ctrls.rdQLenPdf::26                      0                       # What read queue length does an incoming req see
system.mem_ctrls.rdQLenPdf::27                      0                       # What read queue length does an incoming req see
system.mem_ctrls.rdQLenPdf::28                      0                       # What read queue length does an incoming req see
system.mem_ctrls.rdQLenPdf::29                      0                       # What read queue length does an incoming req see
system.mem_ctrls.rdQLenPdf::30                      0                       # What read queue length does an incoming req see
system.mem_ctrls.rdQLenPdf::31                      0                       # What read queue length does an incoming req see
system.mem_ctrls.readBursts                   1152286                       # Number of DRAM read bursts, including those serviced by the write queue
system.mem_ctrls.readPktSize::0                     0                       # Read request sizes (log2)
system.mem_ctrls.readPktSize::1                     0                       # Read request sizes (log2)
system.mem_ctrls.readPktSize::2                     0                       # Read request sizes (log2)
system.mem_ctrls.readPktSize::3                     0                       # Read request sizes (log2)
system.mem_ctrls.readPktSize::4                     0                       # Read request sizes (log2)
system.mem_ctrls.readPktSize::5                     0                       # Read request sizes (log2)
system.mem_ctrls.readPktSize::6               1152286                       # Read request sizes (log2)
system.mem_ctrls.readReqs                     1152286                       # Number of read requests accepted
system.mem_ctrls.readRowHitRate                 81.39                       # Row buffer hit rate for reads
system.mem_ctrls.readRowHits                   824543                       # Number of row buffer hits during reads
system.mem_ctrls.servicedByWrQ                 139260                       # Number of DRAM read bursts serviced by the write queue
system.mem_ctrls.totBusLat                    5065130                       # Total ticks spent in databus transfers
system.mem_ctrls.totGap                     379482384                       # Total gap between requests
system.mem_ctrls.totMemAccLat                33812880                       # Total ticks spent from burst creation until serviced by the DRAM
system.mem_ctrls.totQLat                     14565386                       # Total ticks spent queuing
system.mem_ctrls.wrPerTurnAround::samples        48655                       # Writes before turning the bus around for reads
system.mem_ctrls.wrPerTurnAround::mean      17.825671                       # Writes before turning the bus around for reads
system.mem_ctrls.wrPerTurnAround::gmean     17.807684                       # Writes before turning the bus around for reads
system.mem_ctrls.wrPerTurnAround::stdev      0.784653                       # Writes before turning the bus around for reads
system.mem_ctrls.wrPerTurnAround::16             6439     13.23%     13.23% # Writes before turning the bus around for reads
system.mem_ctrls.wrPerTurnAround::17              426      0.88%     14.11% # Writes before turning the bus around for reads
system.mem_ctrls.wrPerTurnAround::18            37180     76.42%     90.53% # Writes before turning the bus around for reads
system.mem_ctrls.wrPerTurnAround::19             4401      9.05%     99.57% # Writes before turning the bus around for reads
system.mem_ctrls.wrPerTurnAround::20              206      0.42%     99.99% # Writes before turning the bus around for reads
system.mem_ctrls.wrPerTurnAround::21                3      0.01%    100.00% # Writes before turning the bus around for reads
system.mem_ctrls.wrPerTurnAround::total         48655                       # Writes before turning the bus around for reads
system.mem_ctrls.wrQLenPdf::0                       1                       # What write queue length does an incoming req see
system.mem_ctrls.wrQLenPdf::1                       1                       # What write queue length does an incoming req see
system.mem_ctrls.wrQLenPdf::2                       1                       # What write queue length does an incoming req see
system.mem_ctrls.wrQLenPdf::3                       1                       # What write queue length does an incoming req see
system.mem_ctrls.wrQLenPdf::4                       1                       # What write queue length does an incoming req see
system.mem_ctrls.wrQLenPdf::5                       1                       # What write queue length does an incoming req see
system.mem_ctrls.wrQLenPdf::6                       1                       # What write queue length does an incoming req see
system.mem_ctrls.wrQLenPdf::7                       1                       # What write queue length does an incoming req see
system.mem_ctrls.wrQLenPdf::8                       1                       # What write queue length does an incoming req see
system.mem_ctrls.wrQLenPdf::9                       1                       # What write queue length does an incoming req see
system.mem_ctrls.wrQLenPdf::10                      1                       # What write queue length does an incoming req see
system.mem_ctrls.wrQLenPdf::11                      1                       # What write queue length does an incoming req see
system.mem_ctrls.wrQLenPdf::12                      1                       # What write queue length does an incoming req see
system.mem_ctrls.wrQLenPdf::13                      1                       # What write queue length does an incoming req see
system.mem_ctrls.wrQLenPdf::14                      1                       # What write queue length does an incoming req see
system.mem_ctrls.wrQLenPdf::15                  41713                       # What write queue length does an incoming req see
system.mem_ctrls.wrQLenPdf::16                  42307                       # What write queue length does an incoming req see
system.mem_ctrls.wrQLenPdf::17                  47851                       # What write queue length does an incoming req see
system.mem_ctrls.wrQLenPdf::18                  48779                       # What write queue length does an incoming req see
system.mem_ctrls.wrQLenPdf::19                  48819                       # What write queue length does an incoming req see
system.mem_ctrls.wrQLenPdf::20                  48860                       # What write queue length does an incoming req see
system.mem_ctrls.wrQLenPdf::21                  48851                       # What write queue length does an incoming req see
system.mem_ctrls.wrQLenPdf::22                  48878                       # What write queue length does an incoming req see
system.mem_ctrls.wrQLenPdf::23                  48856                       # What write queue length does an incoming req see
system.mem_ctrls.wrQLenPdf::24                  48894                       # What write queue length does an incoming req see
system.mem_ctrls.wrQLenPdf::25                  49033                       # What write queue length does an incoming req see
system.mem_ctrls.wrQLenPdf::26                  49316                       # What write queue length does an incoming req see
system.mem_ctrls.wrQLenPdf::27                  50615                       # What write queue length does an incoming req see
system.mem_ctrls.wrQLenPdf::28                  49512                       # What write queue length does an incoming req see
system.mem_ctrls.wrQLenPdf::29                  48686                       # What write queue length does an incoming req see
system.mem_ctrls.wrQLenPdf::30                  48684                       # What write queue length does an incoming req see
system.mem_ctrls.wrQLenPdf::31                  48667                       # What write queue length does an incoming req see
system.mem_ctrls.wrQLenPdf::32                  48662                       # What write queue length does an incoming req see
system.mem_ctrls.wrQLenPdf::33                    315                       # What write queue length does an incoming req see
system.mem_ctrls.wrQLenPdf::34                     21                       # What write queue length does an incoming req see
system.mem_ctrls.wrQLenPdf::35                      0                       # What write queue length does an incoming req see
system.mem_ctrls.wrQLenPdf::36                      0                       # What write queue length does an incoming req see
system.mem_ctrls.wrQLenPdf::37                      0                       # What write queue length does an incoming req see
system.mem_ctrls.wrQLenPdf::38                      0                       # What write queue length does an incoming req see
system.mem_ctrls.wrQLenPdf::39                      0                       # What write queue length does an incoming req see
system.mem_ctrls.wrQLenPdf::40                      0                       # What write queue length does an incoming req see
system.mem_ctrls.wrQLenPdf::41                      0                       # What write queue length does an incoming req see
system.mem_ctrls.wrQLenPdf::42                      0                       # What write queue length does an incoming req see
system.mem_ctrls.wrQLenPdf::43                      0                       # What write queue length does an incoming req see
system.mem_ctrls.wrQLenPdf::44                      0                       # What write queue length does an incoming req see
system.mem_ctrls.wrQLenPdf::45                      0                       # What write queue length does an incoming req see
system.mem_ctrls.wrQLenPdf::46                      0                       # What write queue length does an incoming req see
system.mem_ctrls.wrQLenPdf::47                      0                       # What write queue length does an incoming req see
system.mem_ctrls.wrQLenPdf::48                      0                       # What write queue length does an incoming req see
system.mem_ctrls.wrQLenPdf::49                      0                       # What write queue length does an incoming req see
system.mem_ctrls.wrQLenPdf::50                      0                       # What write queue length does an incoming req see
system.mem_ctrls.wrQLenPdf::51                      0                       # What write queue length does an incoming req see
system.mem_ctrls.wrQLenPdf::52                      0                       # What write queue length does an incoming req see
system.mem_ctrls.wrQLenPdf::53                      0                       # What write queue length does an incoming req see
system.mem_ctrls.wrQLenPdf::54                      0                       # What write queue length does an incoming req see
system.mem_ctrls.wrQLenPdf::55                      0                       # What write queue length does an incoming req see
system.mem_ctrls.wrQLenPdf::56                      0                       # What write queue length does an incoming req see
system.mem_ctrls.wrQLenPdf::57                      0                       # What write queue length does an incoming req see
system.mem_ctrls.wrQLenPdf::58                      0                       # What write queue length does an incoming req see
system.mem_ctrls.wrQLenPdf::59                      0                       # What write queue length does an incoming req see
system.mem_ctrls.wrQLenPdf::60                      0                       # What write queue length does an incoming req see
system.mem_ctrls.wrQLenPdf::61                      0                       # What write queue length does an incoming req see
system.mem_ctrls.wrQLenPdf::62                      0                       # What write queue length does an incoming req see
system.mem_ctrls.wrQLenPdf::63                      0                       # What write queue length does an incoming req see
system.mem_ctrls.writeBursts                   945560                       # Number of DRAM write bursts, including those merged in the write queue
system.mem_ctrls.writePktSize::0                    0                       # Write request sizes (log2)
system.mem_ctrls.writePktSize::1                    0                       # Write request sizes (log2)
system.mem_ctrls.writePktSize::2                    0                       # Write request sizes (log2)
system.mem_ctrls.writePktSize::3                    0                       # Write request sizes (log2)
system.mem_ctrls.writePktSize::4                    0                       # Write request sizes (log2)
system.mem_ctrls.writePktSize::5                    0                       # Write request sizes (log2)
system.mem_ctrls.writePktSize::6               945560                       # Write request sizes (log2)
system.mem_ctrls.writeReqs                     945560                       # Number of write requests accepted
system.mem_ctrls.writeRowHitRate                98.79                       # Row buffer hit rate for writes
system.mem_ctrls.writeRowHits                  856835                       # Number of row buffer hits during writes
system.mem_ctrls_0.actBackEnergy          26398612920                       # Energy for active background per rank (pJ)
system.mem_ctrls_0.actEnergy               1420545840                       # Energy for activate commands per rank (pJ)
system.mem_ctrls_0.actPowerDownEnergy    143849901360                       # Energy for active power-down per rank (pJ)
system.mem_ctrls_0.averagePower            589.133977                       # Core power per rank (mW)
system.mem_ctrls_0.memoryStateTime::IDLE       268808                       # Time in different power states
system.mem_ctrls_0.memoryStateTime::REF      12672140                       # Time in different power states
system.mem_ctrls_0.memoryStateTime::SREF           20                       # Time in different power states
system.mem_ctrls_0.memoryStateTime::PRE_PDN      4496572                       # Time in different power states
system.mem_ctrls_0.memoryStateTime::ACT      46584681                       # Time in different power states
system.mem_ctrls_0.memoryStateTime::ACT_PDN    315460310                       # Time in different power states
system.mem_ctrls_0.preBackEnergy            627338496                       # Energy for precharge background per rank (pJ)
system.mem_ctrls_0.preEnergy                768754392                       # Energy for precharge commands per rank (pJ)
system.mem_ctrls_0.prePowerDownEnergy      1726683648                       # Energy for precharge power-down per rank (pJ)
system.mem_ctrls_0.readEnergy             11572797600                       # Energy for read commands per rank (pJ)
system.mem_ctrls_0.refreshEnergy         29956938960.000004                       # Energy for refresh commands per rank (pJ)
system.mem_ctrls_0.selfRefreshEnergy     614640.000000                       # Energy for self refresh per rank (pJ)
system.mem_ctrls_0.totalEnergy           223566052704                       # Total energy per rank (pJ)
system.mem_ctrls_0.totalIdleTime            319956902                       # Total Idle time Per DRAM Rank
system.mem_ctrls_0.writeEnergy             7243756416                       # Energy for write commands per rank (pJ)
system.mem_ctrls_1.actBackEnergy               112176                       # Energy for active background per rank (pJ)
system.mem_ctrls_1.actEnergy                        0                       # Energy for activate commands per rank (pJ)
system.mem_ctrls_1.actPowerDownEnergy               0                       # Energy for active power-down per rank (pJ)
system.mem_ctrls_1.averagePower            240.009033                       # Core power per rank (mW)
system.mem_ctrls_1.memoryStateTime::IDLE         7792                       # Time in different power states
system.mem_ctrls_1.memoryStateTime::REF           260                       # Time in different power states
system.mem_ctrls_1.memoryStateTime::SREF    379466953                       # Time in different power states
system.mem_ctrls_1.memoryStateTime::PRE_PDN         7526                       # Time in different power states
system.mem_ctrls_1.memoryStateTime::ACT             0                       # Time in different power states
system.mem_ctrls_1.memoryStateTime::ACT_PDN            0                       # Time in different power states
system.mem_ctrls_1.preBackEnergy              2997504                       # Energy for precharge background per rank (pJ)
system.mem_ctrls_1.preEnergy                        0                       # Energy for precharge commands per rank (pJ)
system.mem_ctrls_1.prePowerDownEnergy         2889984                       # Energy for precharge power-down per rank (pJ)
system.mem_ctrls_1.readEnergy                       0                       # Energy for read commands per rank (pJ)
system.mem_ctrls_1.refreshEnergy         614640.000000                       # Energy for refresh commands per rank (pJ)
system.mem_ctrls_1.selfRefreshEnergy      91072620960                       # Energy for self refresh per rank (pJ)
system.mem_ctrls_1.totalEnergy            91079235264                       # Total energy per rank (pJ)
system.mem_ctrls_1.totalIdleTime                 7526                       # Total Idle time Per DRAM Rank
system.mem_ctrls_1.writeEnergy                      0                       # Energy for write commands per rank (pJ)
system.pwrStateResidencyTicks::UNDEFINED    379482531                       # Cumulative time (in ticks) in various power states
system.ruby.Directory_Controller.CleanReplacement       206720      0.00%      0.00%
system.ruby.Directory_Controller.Data          945560      0.00%      0.00%
system.ruby.Directory_Controller.Fetch        1152286      0.00%      0.00%
system.ruby.Directory_Controller.I.Fetch      1152286      0.00%      0.00%
system.ruby.Directory_Controller.IM.Memory_Data      1152284      0.00%      0.00%
system.ruby.Directory_Controller.M.CleanReplacement       206720      0.00%      0.00%
system.ruby.Directory_Controller.M.Data        945560      0.00%      0.00%
system.ruby.Directory_Controller.MI.Memory_Ack       945560      0.00%      0.00%
system.ruby.Directory_Controller.Memory_Ack       945560      0.00%      0.00%
system.ruby.Directory_Controller.Memory_Data      1152284      0.00%      0.00%
system.ruby.IFETCH.hit_latency_hist_seqr::bucket_size           16                      
system.ruby.IFETCH.hit_latency_hist_seqr::max_bucket          159                      
system.ruby.IFETCH.hit_latency_hist_seqr::samples          716                      
system.ruby.IFETCH.hit_latency_hist_seqr::mean    10.837989                      
system.ruby.IFETCH.hit_latency_hist_seqr::gmean     3.008461                      
system.ruby.IFETCH.hit_latency_hist_seqr::stdev    28.940431                      
system.ruby.IFETCH.hit_latency_hist_seqr |         661     92.32%     92.32% |           0      0.00%     92.32% |           0      0.00%     92.32% |           0      0.00%     92.32% |           0      0.00%     92.32% |           0      0.00%     92.32% |          28      3.91%     96.23% |          27      3.77%    100.00% |           0      0.00%    100.00% |           0      0.00%    100.00%
system.ruby.IFETCH.hit_latency_hist_seqr::total          716                      
system.ruby.IFETCH.latency_hist_seqr::bucket_size         8192                      
system.ruby.IFETCH.latency_hist_seqr::max_bucket        81919                      
system.ruby.IFETCH.latency_hist_seqr::samples       250371                      
system.ruby.IFETCH.latency_hist_seqr::mean  5883.507371                      
system.ruby.IFETCH.latency_hist_seqr::gmean  3577.924375                      
system.ruby.IFETCH.latency_hist_seqr::stdev  5243.430008                      
system.ruby.IFETCH.latency_hist_seqr     |      168350     67.24%     67.24% |       71121     28.41%     95.65% |        9418      3.76%     99.41% |        1290      0.52%     99.92% |         156      0.06%     99.99% |          33      0.01%    100.00% |           2      0.00%    100.00% |           1      0.00%    100.00% |           0      0.00%    100.00% |           0      0.00%    100.00%
system.ruby.IFETCH.latency_hist_seqr::total       250371                      
system.ruby.IFETCH.miss_latency_hist_seqr::bucket_size         8192                      
system.ruby.IFETCH.miss_latency_hist_seqr::max_bucket        81919                      
system.ruby.IFETCH.miss_latency_hist_seqr::samples       249655                      
system.ruby.IFETCH.miss_latency_hist_seqr::mean  5900.349939                      
system.ruby.IFETCH.miss_latency_hist_seqr::gmean  3651.328855                      
system.ruby.IFETCH.miss_latency_hist_seqr::stdev  5241.489447                      
system.ruby.IFETCH.miss_latency_hist_seqr |      167634     67.15%     67.15% |       71121     28.49%     95.63% |        9418      3.77%     99.41% |        1290      0.52%     99.92% |         156      0.06%     99.99% |          33      0.01%    100.00% |           2      0.00%    100.00% |           1      0.00%    100.00% |           0      0.00%    100.00% |           0      0.00%    100.00%
system.ruby.IFETCH.miss_latency_hist_seqr::total       249655                      
system.ruby.L1Cache_Controller.Ack       |       14717      6.05%      6.05% |       15035      6.18%     12.24% |       14937      6.14%     18.38% |       15266      6.28%     24.66% |       15318      6.30%     30.96% |       15241      6.27%     37.23% |       15235      6.27%     43.49% |       15126      6.22%     49.71% |       15056      6.19%     55.90% |       15315      6.30%     62.20% |       15196      6.25%     68.45% |       15103      6.21%     74.66% |       15237      6.27%     80.93% |       15462      6.36%     87.29% |       15561      6.40%     93.69% |       15343      6.31%    100.00%
system.ruby.L1Cache_Controller.Ack::total       243148                      
system.ruby.L1Cache_Controller.Ack_all   |       10719      6.14%      6.14% |       10799      6.18%     12.32% |       10751      6.16%     18.48% |       11024      6.31%     24.79% |       11001      6.30%     31.09% |       10984      6.29%     37.38% |       10904      6.24%     43.63% |       10872      6.23%     49.85% |       10793      6.18%     56.03% |       10860      6.22%     62.25% |       10969      6.28%     68.53% |       10799      6.18%     74.72% |       10934      6.26%     80.98% |       11005      6.30%     87.28% |       11133      6.38%     93.66% |       11077      6.34%    100.00%
system.ruby.L1Cache_Controller.Ack_all::total       174624                      
system.ruby.L1Cache_Controller.Data      |       10568      6.15%      6.15% |       10618      6.18%     12.33% |       10574      6.15%     18.48% |       10834      6.31%     24.79% |       10804      6.29%     31.08% |       10799      6.29%     37.36% |       10738      6.25%     43.61% |       10720      6.24%     49.85% |       10610      6.18%     56.03% |       10697      6.23%     62.25% |       10782      6.28%     68.53% |       10617      6.18%     74.71% |       10776      6.27%     80.98% |       10836      6.31%     87.29% |       10937      6.37%     93.65% |       10908      6.35%    100.00%
system.ruby.L1Cache_Controller.Data::total       171818                      
system.ruby.L1Cache_Controller.DataS_fromL1 |       12612      6.26%      6.26% |       12495      6.21%     12.47% |       12548      6.23%     18.70% |       12641      6.28%     24.98% |       12527      6.22%     31.20% |       12434      6.18%     37.38% |       12713      6.31%     43.69% |       12423      6.17%     49.86% |       12531      6.22%     56.09% |       12643      6.28%     62.37% |       12736      6.33%     68.69% |       12748      6.33%     75.02% |       12618      6.27%     81.29% |       12536      6.23%     87.52% |       12407      6.16%     93.68% |       12729      6.32%    100.00%
system.ruby.L1Cache_Controller.DataS_fromL1::total       201341                      
system.ruby.L1Cache_Controller.Data_Exclusive |        6915      6.16%      6.16% |        6939      6.18%     12.33% |        6996      6.23%     18.56% |        7132      6.35%     24.91% |        7020      6.25%     31.16% |        7072      6.30%     37.46% |        6995      6.23%     43.68% |        6952      6.19%     49.87% |        7093      6.31%     56.19% |        7074      6.30%     62.49% |        7131      6.35%     68.84% |        7116      6.34%     75.17% |        6965      6.20%     81.37% |        6910      6.15%     87.52% |        6950      6.19%     93.71% |        7065      6.29%    100.00%
system.ruby.L1Cache_Controller.Data_Exclusive::total       112325                      
system.ruby.L1Cache_Controller.Data_all_Acks |      121212      6.23%      6.23% |      121618      6.25%     12.48% |      121875      6.26%     18.74% |      121769      6.26%     25.00% |      121588      6.25%     31.25% |      121556      6.25%     37.49% |      121410      6.24%     43.73% |      120999      6.22%     49.95% |      121831      6.26%     56.21% |      122059      6.27%     62.48% |      121777      6.26%     68.74% |      121325      6.23%     74.97% |      121582      6.25%     81.22% |      121911      6.26%     87.48% |      121508      6.24%     93.73% |      122043      6.27%    100.00%
system.ruby.L1Cache_Controller.Data_all_Acks::total      1946063                      
system.ruby.L1Cache_Controller.E.Fwd_GETS |           6      5.71%      5.71% |           4      3.81%      9.52% |           6      5.71%     15.24% |           5      4.76%     20.00% |           8      7.62%     27.62% |           2      1.90%     29.52% |           9      8.57%     38.10% |           7      6.67%     44.76% |          10      9.52%     54.29% |           6      5.71%     60.00% |           7      6.67%     66.67% |          10      9.52%     76.19% |           5      4.76%     80.95% |           4      3.81%     84.76% |           8      7.62%     92.38% |           8      7.62%    100.00%
system.ruby.L1Cache_Controller.E.Fwd_GETS::total          105                      
system.ruby.L1Cache_Controller.E.Fwd_GETX |         303      6.12%      6.12% |         305      6.16%     12.29% |         275      5.56%     17.85% |         317      6.41%     24.25% |         310      6.27%     30.52% |         305      6.16%     36.68% |         317      6.41%     43.09% |         288      5.82%     48.91% |         321      6.49%     55.40% |         311      6.29%     61.68% |         329      6.65%     68.33% |         327      6.61%     74.94% |         313      6.33%     81.27% |         319      6.45%     87.71% |         301      6.08%     93.80% |         307      6.20%    100.00%
system.ruby.L1Cache_Controller.E.Fwd_GETX::total         4948                      
system.ruby.L1Cache_Controller.E.Fwd_GET_INSTR |           3      4.69%      4.69% |           4      6.25%     10.94% |           3      4.69%     15.62% |           1      1.56%     17.19% |           4      6.25%     23.44% |           6      9.38%     32.81% |           4      6.25%     39.06% |           2      3.12%     42.19% |           5      7.81%     50.00% |           6      9.38%     59.38% |           5      7.81%     67.19% |           5      7.81%     75.00% |           4      6.25%     81.25% |           4      6.25%     87.50% |           5      7.81%     95.31% |           3      4.69%    100.00%
system.ruby.L1Cache_Controller.E.Fwd_GET_INSTR::total           64                      
system.ruby.L1Cache_Controller.E.Inv     |        1734      6.13%      6.13% |        1701      6.01%     12.14% |        1815      6.42%     18.56% |        1748      6.18%     24.73% |        1808      6.39%     31.13% |        1815      6.42%     37.54% |        1696      5.99%     43.54% |        1767      6.25%     49.78% |        1794      6.34%     56.12% |        1814      6.41%     62.53% |        1743      6.16%     68.69% |        1791      6.33%     75.02% |        1821      6.44%     81.46% |        1729      6.11%     87.57% |        1734      6.13%     93.70% |        1782      6.30%    100.00%
system.ruby.L1Cache_Controller.E.Inv::total        28292                      
system.ruby.L1Cache_Controller.E.L1_Replacement |        4847      6.17%      6.17% |        4900      6.24%     12.41% |        4870      6.20%     18.61% |        5036      6.41%     25.02% |        4868      6.20%     31.22% |        4920      6.26%     37.48% |        4947      6.30%     43.78% |        4864      6.19%     49.97% |        4947      6.30%     56.27% |        4913      6.25%     62.52% |        5029      6.40%     68.92% |        4960      6.31%     75.24% |        4802      6.11%     81.35% |        4836      6.16%     87.51% |        4871      6.20%     93.71% |        4941      6.29%    100.00%
system.ruby.L1Cache_Controller.E.L1_Replacement::total        78551                      
system.ruby.L1Cache_Controller.E.Load    |           0      0.00%      0.00% |           0      0.00%      0.00% |           0      0.00%      0.00% |           0      0.00%      0.00% |           0      0.00%      0.00% |           0      0.00%      0.00% |           0      0.00%      0.00% |           1     50.00%     50.00% |           0      0.00%     50.00% |           0      0.00%     50.00% |           0      0.00%     50.00% |           1     50.00%    100.00% |           0      0.00%    100.00% |           0      0.00%    100.00% |           0      0.00%    100.00% |           0      0.00%    100.00%
system.ruby.L1Cache_Controller.E.Load::total            2                      
system.ruby.L1Cache_Controller.E.Store   |          22      6.03%      6.03% |          25      6.85%     12.88% |          27      7.40%     20.27% |          25      6.85%     27.12% |          22      6.03%     33.15% |          24      6.58%     39.73% |          22      6.03%     45.75% |          24      6.58%     52.33% |          16      4.38%     56.71% |          24      6.58%     63.29% |          18      4.93%     68.22% |          23      6.30%     74.52% |          20      5.48%     80.00% |          18      4.93%     84.93% |          31      8.49%     93.42% |          24      6.58%    100.00%
system.ruby.L1Cache_Controller.E.Store::total          365                      
system.ruby.L1Cache_Controller.Fwd_GETS  |        6106      6.21%      6.21% |        6130      6.23%     12.44% |        6249      6.36%     18.80% |        6072      6.18%     24.97% |        6051      6.15%     31.13% |        6144      6.25%     37.38% |        6165      6.27%     43.65% |        6119      6.22%     49.87% |        6208      6.31%     56.18% |        6280      6.39%     62.57% |        6179      6.28%     68.85% |        6189      6.29%     75.15% |        6178      6.28%     81.43% |        6059      6.16%     87.59% |        6092      6.20%     93.79% |        6107      6.21%    100.00%
system.ruby.L1Cache_Controller.Fwd_GETS::total        98328                      
system.ruby.L1Cache_Controller.Fwd_GETX  |       51094      6.26%      6.26% |       51059      6.26%     12.52% |       50860      6.23%     18.76% |       50950      6.25%     25.00% |       50890      6.24%     31.24% |       51060      6.26%     37.50% |       50816      6.23%     43.73% |       50584      6.20%     49.93% |       50696      6.21%     56.14% |       51246      6.28%     62.42% |       51085      6.26%     68.69% |       50820      6.23%     74.92% |       50895      6.24%     81.15% |       51351      6.29%     87.45% |       51112      6.27%     93.71% |       51280      6.29%    100.00%
system.ruby.L1Cache_Controller.Fwd_GETX::total       815798                      
system.ruby.L1Cache_Controller.Fwd_GET_INSTR |        6290      6.11%      6.11% |        6360      6.17%     12.28% |        6355      6.17%     18.45% |        6524      6.33%     24.78% |        6355      6.17%     30.95% |        6372      6.19%     37.14% |        6538      6.35%     43.48% |        6389      6.20%     49.69% |        6519      6.33%     56.01% |        6442      6.25%     62.27% |        6438      6.25%     68.52% |        6517      6.33%     74.84% |        6437      6.25%     81.09% |        6472      6.28%     87.38% |        6445      6.26%     93.63% |        6560      6.37%    100.00%
system.ruby.L1Cache_Controller.Fwd_GET_INSTR::total       103013                      
system.ruby.L1Cache_Controller.I.Ifetch  |         755      6.52%      6.52% |         736      6.35%     12.87% |         732      6.32%     19.19% |         751      6.48%     25.67% |         753      6.50%     32.17% |         696      6.01%     38.17% |         735      6.34%     44.52% |         721      6.22%     50.74% |         737      6.36%     57.10% |         706      6.09%     63.19% |         721      6.22%     69.41% |         687      5.93%     75.34% |         714      6.16%     81.51% |         707      6.10%     87.61% |         716      6.18%     93.79% |         720      6.21%    100.00%
system.ruby.L1Cache_Controller.I.Ifetch::total        11587                      
system.ruby.L1Cache_Controller.I.Inv     |         165      6.42%      6.42% |         160      6.23%     12.65% |         187      7.28%     19.93% |         158      6.15%     26.08% |         163      6.34%     32.43% |         152      5.92%     38.34% |         184      7.16%     45.50% |         154      5.99%     51.50% |         161      6.27%     57.77% |         163      6.34%     64.11% |         158      6.15%     70.26% |         164      6.38%     76.64% |         134      5.22%     81.86% |         135      5.25%     87.12% |         158      6.15%     93.27% |         173      6.73%    100.00%
system.ruby.L1Cache_Controller.I.Inv::total         2569                      
system.ruby.L1Cache_Controller.I.L1_Replacement |       47277      6.21%      6.21% |       47549      6.24%     12.45% |       47536      6.24%     18.69% |       47567      6.25%     24.94% |       47780      6.27%     31.21% |       47527      6.24%     37.46% |       47728      6.27%     43.72% |       47423      6.23%     49.95% |       47589      6.25%     56.20% |       47804      6.28%     62.48% |       47828      6.28%     68.76% |       47501      6.24%     74.99% |       47698      6.26%     81.26% |       47423      6.23%     87.48% |       47450      6.23%     93.71% |       47863      6.29%    100.00%
system.ruby.L1Cache_Controller.I.L1_Replacement::total       761543                      
system.ruby.L1Cache_Controller.I.Load    |        5709      6.12%      6.12% |        5753      6.16%     12.28% |        5756      6.17%     18.44% |        6056      6.49%     24.93% |        5874      6.29%     31.23% |        5772      6.18%     37.41% |        5823      6.24%     43.65% |        5688      6.09%     49.74% |        5833      6.25%     55.99% |        5884      6.30%     62.29% |        5787      6.20%     68.49% |        5800      6.21%     74.70% |        5935      6.36%     81.06% |        5854      6.27%     87.33% |        5835      6.25%     93.58% |        5989      6.42%    100.00%
system.ruby.L1Cache_Controller.I.Load::total        93348                      
system.ruby.L1Cache_Controller.I.Store   |       46253      6.24%      6.24% |       46436      6.26%     12.50% |       46187      6.23%     18.73% |       46451      6.26%     24.99% |       46106      6.22%     31.21% |       46532      6.27%     37.48% |       46136      6.22%     43.70% |       46028      6.21%     49.91% |       46219      6.23%     56.14% |       46491      6.27%     62.41% |       46513      6.27%     68.68% |       46560      6.28%     74.96% |       46193      6.23%     81.19% |       46562      6.28%     87.47% |       46229      6.23%     93.70% |       46693      6.30%    100.00%
system.ruby.L1Cache_Controller.I.Store::total       741589                      
system.ruby.L1Cache_Controller.IM.Ack    |        4642      5.94%      5.94% |        4788      6.12%     12.06% |        4701      6.01%     18.08% |        4800      6.14%     24.21% |        4964      6.35%     30.56% |        5027      6.43%     36.99% |        4776      6.11%     43.10% |        4921      6.29%     49.40% |        4805      6.15%     55.54% |        5026      6.43%     61.97% |        4880      6.24%     68.22% |        4940      6.32%     74.53% |        5075      6.49%     81.03% |        4988      6.38%     87.41% |        5005      6.40%     93.81% |        4841      6.19%    100.00%
system.ruby.L1Cache_Controller.IM.Ack::total        78179                      
system.ruby.L1Cache_Controller.IM.Data   |       10568      6.15%      6.15% |       10618      6.18%     12.33% |       10574      6.15%     18.48% |       10834      6.31%     24.79% |       10804      6.29%     31.08% |       10799      6.29%     37.36% |       10738      6.25%     43.61% |       10720      6.24%     49.85% |       10610      6.18%     56.03% |       10697      6.23%     62.25% |       10782      6.28%     68.53% |       10617      6.18%     74.71% |       10776      6.27%     80.98% |       10836      6.31%     87.29% |       10937      6.37%     93.65% |       10908      6.35%    100.00%
system.ruby.L1Cache_Controller.IM.Data::total       171818                      
system.ruby.L1Cache_Controller.IM.Data_all_Acks |      110456      6.24%      6.24% |      110654      6.25%     12.49% |      110914      6.27%     18.76% |      110657      6.25%     25.01% |      110515      6.24%     31.25% |      110493      6.24%     37.49% |      110473      6.24%     43.73% |      110176      6.22%     49.96% |      110787      6.26%     56.22% |      110902      6.27%     62.48% |      110714      6.25%     68.74% |      110622      6.25%     74.98% |      110571      6.25%     81.23% |      110912      6.27%     87.50% |      110452      6.24%     93.74% |      110874      6.26%    100.00%
system.ruby.L1Cache_Controller.IM.Data_all_Acks::total      1770172                      
system.ruby.L1Cache_Controller.IM.Inv    |         342      6.15%      6.15% |         303      5.45%     11.60% |         361      6.49%     18.10% |         338      6.08%     24.18% |         315      5.67%     29.84% |         348      6.26%     36.10% |         320      5.76%     41.86% |         361      6.49%     48.35% |         385      6.93%     55.28% |         345      6.21%     61.49% |         349      6.28%     67.76% |         400      7.20%     74.96% |         338      6.08%     81.04% |         348      6.26%     87.30% |         351      6.31%     93.61% |         355      6.39%    100.00%
system.ruby.L1Cache_Controller.IM.Inv::total         5559                      
system.ruby.L1Cache_Controller.IM.L1_Replacement |      623840      6.26%      6.26% |      622059      6.24%     12.50% |      631413      6.33%     18.83% |      617419      6.19%     25.03% |      626395      6.28%     31.31% |      625869      6.28%     37.59% |      621765      6.24%     43.83% |      620427      6.22%     50.06% |      628014      6.30%     56.36% |      620888      6.23%     62.59% |      615912      6.18%     68.77% |      621232      6.23%     75.00% |      622977      6.25%     81.25% |      623724      6.26%     87.51% |      622662      6.25%     93.75% |      622643      6.25%    100.00%
system.ruby.L1Cache_Controller.IM.L1_Replacement::total      9967239                      
system.ruby.L1Cache_Controller.IS.DataS_fromL1 |       12452      6.26%      6.26% |       12339      6.21%     12.47% |       12365      6.22%     18.69% |       12489      6.28%     24.97% |       12371      6.22%     31.19% |       12287      6.18%     37.37% |       12539      6.31%     43.67% |       12278      6.17%     49.85% |       12376      6.22%     56.07% |       12478      6.28%     62.35% |       12586      6.33%     68.68% |       12587      6.33%     75.01% |       12481      6.28%     81.28% |       12405      6.24%     87.52% |       12257      6.16%     93.69% |       12553      6.31%    100.00%
system.ruby.L1Cache_Controller.IS.DataS_fromL1::total       198843                      
system.ruby.L1Cache_Controller.IS.Data_Exclusive |        6915      6.16%      6.16% |        6939      6.18%     12.33% |        6996      6.23%     18.56% |        7132      6.35%     24.91% |        7020      6.25%     31.16% |        7072      6.30%     37.46% |        6995      6.23%     43.68% |        6952      6.19%     49.87% |        7093      6.31%     56.19% |        7074      6.30%     62.49% |        7131      6.35%     68.84% |        7116      6.34%     75.17% |        6965      6.20%     81.37% |        6910      6.15%     87.52% |        6950      6.19%     93.71% |        7065      6.29%    100.00%
system.ruby.L1Cache_Controller.IS.Data_Exclusive::total       112325                      
system.ruby.L1Cache_Controller.IS.Data_all_Acks |        6517      6.13%      6.13% |        6633      6.24%     12.37% |        6645      6.25%     18.61% |        6705      6.31%     24.92% |        6676      6.28%     31.20% |        6704      6.30%     37.50% |        6595      6.20%     43.70% |        6564      6.17%     49.88% |        6751      6.35%     56.22% |        6784      6.38%     62.60% |        6696      6.30%     68.90% |        6453      6.07%     74.97% |        6744      6.34%     81.31% |        6579      6.19%     87.50% |        6647      6.25%     93.75% |        6650      6.25%    100.00%
system.ruby.L1Cache_Controller.IS.Data_all_Acks::total       106343                      
system.ruby.L1Cache_Controller.IS.Inv    |        4399      6.11%      6.11% |        4487      6.23%     12.33% |        4499      6.24%     18.58% |        4559      6.33%     24.91% |        4553      6.32%     31.23% |        4506      6.25%     37.48% |        4516      6.27%     43.75% |        4404      6.11%     49.86% |        4448      6.17%     56.04% |        4538      6.30%     62.33% |        4517      6.27%     68.60% |        4411      6.12%     74.73% |        4404      6.11%     80.84% |        4551      6.32%     87.16% |        4559      6.33%     93.48% |        4695      6.52%    100.00%
system.ruby.L1Cache_Controller.IS.Inv::total        72046                      
system.ruby.L1Cache_Controller.IS.L1_Replacement |       77888      6.26%      6.26% |       76915      6.18%     12.44% |       78301      6.29%     18.73% |       77919      6.26%     24.99% |       77051      6.19%     31.19% |       78558      6.31%     37.50% |       77585      6.23%     43.73% |       77427      6.22%     49.96% |       78611      6.32%     56.27% |       78769      6.33%     62.60% |       78684      6.32%     68.93% |       78954      6.34%     75.27% |       76998      6.19%     81.46% |       75861      6.10%     87.56% |       76280      6.13%     93.69% |       78568      6.31%    100.00%
system.ruby.L1Cache_Controller.IS.L1_Replacement::total      1244369                      
system.ruby.L1Cache_Controller.IS_I.DataS_fromL1 |         160      6.41%      6.41% |         156      6.24%     12.65% |         183      7.33%     19.98% |         152      6.08%     26.06% |         156      6.24%     32.31% |         147      5.88%     38.19% |         174      6.97%     45.16% |         145      5.80%     50.96% |         155      6.20%     57.17% |         165      6.61%     63.77% |         150      6.00%     69.78% |         161      6.45%     76.22% |         137      5.48%     81.71% |         131      5.24%     86.95% |         150      6.00%     92.95% |         176      7.05%    100.00%
system.ruby.L1Cache_Controller.IS_I.DataS_fromL1::total         2498                      
system.ruby.L1Cache_Controller.IS_I.Data_all_Acks |        4239      6.10%      6.10% |        4331      6.23%     12.32% |        4316      6.21%     18.53% |        4407      6.34%     24.86% |        4397      6.32%     31.19% |        4359      6.27%     37.45% |        4342      6.24%     43.70% |        4259      6.12%     49.82% |        4293      6.17%     55.99% |        4373      6.29%     62.28% |        4367      6.28%     68.56% |        4250      6.11%     74.67% |        4267      6.14%     80.81% |        4420      6.36%     87.16% |        4409      6.34%     93.50% |        4519      6.50%    100.00%
system.ruby.L1Cache_Controller.IS_I.Data_all_Acks::total        69548                      
system.ruby.L1Cache_Controller.IS_I.Inv  |          14      4.58%      4.58% |          25      8.17%     12.75% |          27      8.82%     21.57% |          12      3.92%     25.49% |          13      4.25%     29.74% |          14      4.58%     34.31% |          17      5.56%     39.87% |          21      6.86%     46.73% |          28      9.15%     55.88% |          17      5.56%     61.44% |          23      7.52%     68.95% |          21      6.86%     75.82% |          25      8.17%     83.99% |          19      6.21%     90.20% |          16      5.23%     95.42% |          14      4.58%    100.00%
system.ruby.L1Cache_Controller.IS_I.Inv::total          306                      
system.ruby.L1Cache_Controller.IS_I.L1_Replacement |          31      9.75%      9.75% |          20      6.29%     16.04% |           4      1.26%     17.30% |          20      6.29%     23.58% |          55     17.30%     40.88% |          22      6.92%     47.80% |          19      5.97%     53.77% |          16      5.03%     58.81% |           9      2.83%     61.64% |          17      5.35%     66.98% |          27      8.49%     75.47% |          16      5.03%     80.50% |          14      4.40%     84.91% |          19      5.97%     90.88% |          11      3.46%     94.34% |          18      5.66%    100.00%
system.ruby.L1Cache_Controller.IS_I.L1_Replacement::total          318                      
system.ruby.L1Cache_Controller.Ifetch    |       16232      6.18%      6.18% |       16335      6.21%     12.39% |       16518      6.28%     18.67% |       16461      6.26%     24.94% |       16502      6.28%     31.22% |       16388      6.23%     37.45% |       16473      6.27%     43.72% |       16180      6.16%     49.87% |       16414      6.24%     56.12% |       16690      6.35%     62.47% |       16659      6.34%     68.81% |       16249      6.18%     74.99% |       16422      6.25%     81.24% |       16442      6.26%     87.49% |       16400      6.24%     93.73% |       16480      6.27%    100.00%
system.ruby.L1Cache_Controller.Ifetch::total       262845                      
system.ruby.L1Cache_Controller.Inv       |       95265      6.21%      6.21% |       95561      6.22%     12.43% |       96021      6.25%     18.69% |       96239      6.27%     24.95% |       96041      6.26%     31.21% |       95668      6.23%     37.44% |       95993      6.25%     43.70% |       95435      6.22%     49.91% |       96420      6.28%     56.19% |       96185      6.27%     62.46% |       96280      6.27%     68.73% |       95929      6.25%     74.98% |       96094      6.26%     81.24% |       95851      6.24%     87.48% |       95663      6.23%     93.71% |       96496      6.29%    100.00%
system.ruby.L1Cache_Controller.Inv::total      1535141                      
system.ruby.L1Cache_Controller.L1_Replacement |      799303      6.25%      6.25% |      796700      6.23%     12.49% |      807973      6.32%     18.81% |      793396      6.21%     25.02% |      801551      6.27%     31.29% |      802276      6.28%     37.57% |      797378      6.24%     43.81% |      795453      6.22%     50.03% |      804806      6.30%     56.33% |      798003      6.24%     62.57% |      792991      6.21%     68.78% |      797988      6.24%     75.02% |      797950      6.24%     81.27% |      797538      6.24%     87.51% |      796968      6.24%     93.74% |      799544      6.26%    100.00%
system.ruby.L1Cache_Controller.L1_Replacement::total     12779818                      
system.ruby.L1Cache_Controller.Load      |       15471      6.20%      6.20% |       15464      6.19%     12.39% |       15427      6.18%     18.57% |       15883      6.36%     24.93% |       15492      6.21%     31.14% |       15579      6.24%     37.38% |       15609      6.25%     43.63% |       15429      6.18%     49.81% |       15689      6.28%     56.10% |       15718      6.30%     62.39% |       15741      6.31%     68.70% |       15746      6.31%     75.01% |       15613      6.25%     81.26% |       15458      6.19%     87.45% |       15483      6.20%     93.65% |       15844      6.35%    100.00%
system.ruby.L1Cache_Controller.Load::total       249646                      
system.ruby.L1Cache_Controller.M.Fwd_GETS |        5510      6.18%      6.18% |        5560      6.23%     12.41% |        5685      6.37%     18.79% |        5531      6.20%     24.99% |        5467      6.13%     31.12% |        5605      6.28%     37.40% |        5603      6.28%     43.69% |        5539      6.21%     49.90% |        5638      6.32%     56.22% |        5670      6.36%     62.57% |        5613      6.29%     68.87% |        5597      6.28%     75.14% |        5602      6.28%     81.43% |        5507      6.17%     87.60% |        5504      6.17%     93.77% |        5555      6.23%    100.00%
system.ruby.L1Cache_Controller.M.Fwd_GETS::total        89186                      
system.ruby.L1Cache_Controller.M.Fwd_GETX |       45649      6.25%      6.25% |       45692      6.26%     12.51% |       45545      6.24%     18.75% |       45656      6.25%     25.00% |       45628      6.25%     31.25% |       45726      6.26%     37.51% |       45466      6.23%     43.74% |       45337      6.21%     49.95% |       45387      6.22%     56.16% |       45756      6.27%     62.43% |       45709      6.26%     68.69% |       45580      6.24%     74.93% |       45593      6.24%     81.18% |       45871      6.28%     87.46% |       45651      6.25%     93.71% |       45927      6.29%    100.00%
system.ruby.L1Cache_Controller.M.Fwd_GETX::total       730173                      
system.ruby.L1Cache_Controller.M.Fwd_GET_INSTR |        5908      6.11%      6.11% |        5993      6.20%     12.32% |        5927      6.13%     18.45% |        6133      6.35%     24.80% |        5944      6.15%     30.95% |        5980      6.19%     37.14% |        6159      6.37%     43.52% |        5992      6.20%     49.72% |        6092      6.31%     56.02% |        6056      6.27%     62.29% |        6041      6.25%     68.54% |        6117      6.33%     74.88% |        6000      6.21%     81.09% |        6079      6.29%     87.38% |        6043      6.25%     93.63% |        6153      6.37%    100.00%
system.ruby.L1Cache_Controller.M.Fwd_GET_INSTR::total        96617                      
system.ruby.L1Cache_Controller.M.Inv     |       20410      6.21%      6.21% |       20625      6.28%     12.49% |       20420      6.21%     18.70% |       20594      6.27%     24.97% |       20643      6.28%     31.25% |       20507      6.24%     37.49% |       20488      6.23%     43.72% |       20649      6.28%     50.00% |       20602      6.27%     56.27% |       20432      6.22%     62.49% |       20513      6.24%     68.73% |       20629      6.28%     75.01% |       20522      6.24%     81.25% |       20428      6.22%     87.47% |       20581      6.26%     93.73% |       20600      6.27%    100.00%
system.ruby.L1Cache_Controller.M.Inv::total       328643                      
system.ruby.L1Cache_Controller.M.L1_Replacement |       43719      6.24%      6.24% |       43608      6.22%     12.47% |       44115      6.30%     18.76% |       43792      6.25%     25.01% |       43856      6.26%     31.27% |       43683      6.24%     37.51% |       43683      6.24%     43.75% |       43555      6.22%     49.96% |       43877      6.26%     56.23% |       43872      6.26%     62.49% |       43825      6.26%     68.74% |       43521      6.21%     74.96% |       43808      6.25%     81.21% |       44050      6.29%     87.50% |       43837      6.26%     93.76% |       43740      6.24%    100.00%
system.ruby.L1Cache_Controller.M.L1_Replacement::total       700541                      
system.ruby.L1Cache_Controller.M.Load    |         438      6.05%      6.05% |         441      6.09%     12.14% |         444      6.13%     18.28% |         483      6.67%     24.95% |         399      5.51%     30.46% |         428      5.91%     36.37% |         450      6.22%     42.59% |         466      6.44%     49.03% |         450      6.22%     55.24% |         467      6.45%     61.69% |         464      6.41%     68.10% |         472      6.52%     74.62% |         459      6.34%     80.96% |         481      6.64%     87.61% |         443      6.12%     93.73% |         454      6.27%    100.00%
system.ruby.L1Cache_Controller.M.Load::total         7239                      
system.ruby.L1Cache_Controller.M.Store   |        3406      6.16%      6.16% |        3360      6.08%     12.24% |        3404      6.16%     18.40% |        3495      6.32%     24.72% |        3397      6.14%     30.86% |        3526      6.38%     37.24% |        3426      6.20%     43.44% |        3497      6.33%     49.76% |        3416      6.18%     55.94% |        3497      6.33%     62.27% |        3489      6.31%     68.58% |        3525      6.38%     74.95% |        3487      6.31%     81.26% |        3411      6.17%     87.43% |        3486      6.31%     93.74% |        3462      6.26%    100.00%
system.ruby.L1Cache_Controller.M.Store::total        55284                      
system.ruby.L1Cache_Controller.M_I.Fwd_GETS |         590      6.53%      6.53% |         566      6.26%     12.79% |         558      6.17%     18.97% |         536      5.93%     24.90% |         576      6.37%     31.27% |         537      5.94%     37.21% |         553      6.12%     43.33% |         573      6.34%     49.67% |         560      6.20%     55.87% |         604      6.68%     62.55% |         559      6.19%     68.74% |         582      6.44%     75.18% |         571      6.32%     81.50% |         548      6.06%     87.56% |         580      6.42%     93.98% |         544      6.02%    100.00%
system.ruby.L1Cache_Controller.M_I.Fwd_GETS::total         9037                      
system.ruby.L1Cache_Controller.M_I.Fwd_GETX |        5142      6.37%      6.37% |        5062      6.27%     12.65% |        5040      6.25%     18.90% |        4977      6.17%     25.06% |        4952      6.14%     31.20% |        5029      6.23%     37.44% |        5033      6.24%     43.67% |        4959      6.15%     49.82% |        4988      6.18%     56.00% |        5179      6.42%     62.42% |        5047      6.26%     68.68% |        4913      6.09%     74.77% |        4989      6.18%     80.95% |        5161      6.40%     87.35% |        5160      6.40%     93.75% |        5046      6.25%    100.00%
system.ruby.L1Cache_Controller.M_I.Fwd_GETX::total        80677                      
system.ruby.L1Cache_Controller.M_I.Fwd_GET_INSTR |         379      5.99%      5.99% |         363      5.73%     11.72% |         425      6.71%     18.43% |         390      6.16%     24.59% |         407      6.43%     31.02% |         386      6.10%     37.11% |         375      5.92%     43.04% |         395      6.24%     49.27% |         422      6.66%     55.94% |         380      6.00%     61.94% |         392      6.19%     68.13% |         395      6.24%     74.37% |         433      6.84%     81.21% |         389      6.14%     87.35% |         397      6.27%     93.62% |         404      6.38%    100.00%
system.ruby.L1Cache_Controller.M_I.Fwd_GET_INSTR::total         6332                      
system.ruby.L1Cache_Controller.M_I.Ifetch |         476      6.26%      6.26% |         469      6.16%     12.42% |         493      6.48%     18.90% |         481      6.32%     25.22% |         480      6.31%     31.53% |         452      5.94%     37.47% |         478      6.28%     43.75% |         453      5.95%     49.70% |         465      6.11%     55.82% |         501      6.58%     62.40% |         505      6.64%     69.04% |         441      5.80%     74.83% |         452      5.94%     80.77% |         468      6.15%     86.92% |         520      6.83%     93.76% |         475      6.24%    100.00%
system.ruby.L1Cache_Controller.M_I.Ifetch::total         7609                      
system.ruby.L1Cache_Controller.M_I.Inv   |       37562      6.23%      6.23% |       37508      6.22%     12.45% |       37890      6.28%     18.73% |       37786      6.26%     24.99% |       37828      6.27%     31.26% |       37551      6.23%     37.49% |       37672      6.25%     43.73% |       37467      6.21%     49.95% |       37967      6.29%     56.24% |       37629      6.24%     62.48% |       37839      6.27%     68.75% |       37570      6.23%     74.98% |       37716      6.25%     81.23% |       37849      6.27%     87.51% |       37594      6.23%     93.74% |       37761      6.26%    100.00%
system.ruby.L1Cache_Controller.M_I.Inv::total       603189                      
system.ruby.L1Cache_Controller.M_I.Store |           0      0.00%      0.00% |           0      0.00%      0.00% |           0      0.00%      0.00% |           0      0.00%      0.00% |           0      0.00%      0.00% |           1     50.00%     50.00% |           0      0.00%     50.00% |           0      0.00%     50.00% |           0      0.00%     50.00% |           0      0.00%     50.00% |           1     50.00%    100.00% |           0      0.00%    100.00% |           0      0.00%    100.00% |           0      0.00%    100.00% |           0      0.00%    100.00% |           0      0.00%    100.00%
system.ruby.L1Cache_Controller.M_I.Store::total            2                      
system.ruby.L1Cache_Controller.M_I.WB_Ack |        4893      6.13%      6.13% |        5009      6.27%     12.40% |        5072      6.35%     18.75% |        5139      6.44%     25.19% |        4961      6.21%     31.40% |        5099      6.39%     37.78% |        4997      6.26%     44.04% |        5025      6.29%     50.33% |        4887      6.12%     56.45% |        4993      6.25%     62.71% |        5017      6.28%     68.99% |        5021      6.29%     75.28% |        4901      6.14%     81.41% |        4939      6.18%     87.60% |        4977      6.23%     93.83% |        4926      6.17%    100.00%
system.ruby.L1Cache_Controller.M_I.WB_Ack::total        79856                      
system.ruby.L1Cache_Controller.NP.Ifetch |       14649      6.15%      6.15% |       14810      6.22%     12.37% |       14951      6.28%     18.65% |       14872      6.25%     24.90% |       14922      6.27%     31.17% |       14887      6.25%     37.42% |       14898      6.26%     43.68% |       14680      6.17%     49.85% |       14860      6.24%     56.09% |       15089      6.34%     62.43% |       15088      6.34%     68.76% |       14769      6.20%     74.97% |       14877      6.25%     81.22% |       14898      6.26%     87.47% |       14826      6.23%     93.70% |       14996      6.30%    100.00%
system.ruby.L1Cache_Controller.NP.Ifetch::total       238072                      
system.ruby.L1Cache_Controller.NP.Inv    |        1329      6.25%      6.25% |        1335      6.28%     12.54% |        1294      6.09%     18.63% |        1273      5.99%     24.62% |        1288      6.06%     30.68% |        1312      6.17%     36.85% |        1360      6.40%     43.25% |        1351      6.36%     49.61% |        1321      6.22%     55.83% |        1360      6.40%     62.23% |        1282      6.03%     68.26% |        1339      6.30%     74.56% |        1342      6.32%     80.88% |        1300      6.12%     86.99% |        1408      6.63%     93.62% |        1356      6.38%    100.00%
system.ruby.L1Cache_Controller.NP.Inv::total        21250                      
system.ruby.L1Cache_Controller.NP.Load   |        9170      6.26%      6.26% |        9100      6.21%     12.47% |        9066      6.19%     18.65% |        9206      6.28%     24.93% |        9072      6.19%     31.12% |        9214      6.29%     37.41% |        9189      6.27%     43.68% |        9110      6.22%     49.90% |        9238      6.30%     56.20% |        9195      6.27%     62.47% |        9334      6.37%     68.84% |        9313      6.35%     75.20% |        9070      6.19%     81.39% |        8986      6.13%     87.52% |        9036      6.17%     93.68% |        9259      6.32%    100.00%
system.ruby.L1Cache_Controller.NP.Load::total       146558                      
[...]
system.ruby.network.routers18.port_buffers032.avg_buf_msgs     0.006942                       # Average number of messages in buffer
system.ruby.network.routers18.port_buffers032.avg_stall_time    72.055917                       # Average number of cycles messages are stalled in this MB
system.ruby.network.routers18.port_buffers034.avg_buf_msgs     0.010648                       # Average number of messages in buffer
system.ruby.network.routers18.port_buffers034.avg_stall_time    77.575650                       # Average number of cycles messages are stalled in this MB
system.ruby.network.routers18.port_buffers035.avg_buf_msgs     0.006887                       # Average number of messages in buffer
system.ruby.network.routers18.port_buffers035.avg_stall_time    72.414141                       # Average number of cycles messages are stalled in this MB
system.ruby.network.routers18.port_buffers037.avg_buf_msgs     0.010562                       # Average number of messages in buffer
system.ruby.network.routers18.port_buffers037.avg_stall_time    77.664979                       # Average number of cycles messages are stalled in this MB
system.ruby.network.routers18.port_buffers038.avg_buf_msgs     0.006921                       # Average number of messages in buffer
system.ruby.network.routers18.port_buffers038.avg_stall_time    71.905594                       # Average number of cycles messages are stalled in this MB
system.ruby.network.routers18.port_buffers040.avg_buf_msgs     0.010491                       # Average number of messages in buffer
system.ruby.network.routers18.port_buffers040.avg_stall_time    76.967296                       # Average number of cycles messages are stalled in this MB
system.ruby.network.routers18.port_buffers041.avg_buf_msgs     0.006880                       # Average number of messages in buffer
system.ruby.network.routers18.port_buffers041.avg_stall_time    72.224105                       # Average number of cycles messages are stalled in this MB
system.ruby.network.routers18.port_buffers043.avg_buf_msgs     0.010533                       # Average number of messages in buffer
system.ruby.network.routers18.port_buffers043.avg_stall_time    77.683464                       # Average number of cycles messages are stalled in this MB
system.ruby.network.routers18.port_buffers044.avg_buf_msgs     0.006922                       # Average number of messages in buffer
system.ruby.network.routers18.port_buffers044.avg_stall_time    72.313999                       # Average number of cycles messages are stalled in this MB
system.ruby.network.routers18.port_buffers046.avg_buf_msgs     0.010555                       # Average number of messages in buffer
system.ruby.network.routers18.port_buffers046.avg_stall_time    76.925106                       # Average number of cycles messages are stalled in this MB
system.ruby.network.routers18.port_buffers047.avg_buf_msgs     0.007064                       # Average number of messages in buffer
system.ruby.network.routers18.port_buffers047.avg_stall_time    72.511059                       # Average number of cycles messages are stalled in this MB
system.ruby.network.routers18.port_buffers048.avg_buf_msgs     0.242712                       # Average number of messages in buffer
system.ruby.network.routers18.port_buffers048.avg_stall_time    89.474819                       # Average number of cycles messages are stalled in this MB
system.ruby.network.routers18.port_buffers049.avg_buf_msgs     0.234235                       # Average number of messages in buffer
system.ruby.network.routers18.port_buffers049.avg_stall_time    67.080380                       # Average number of cycles messages are stalled in this MB
system.ruby.network.routers18.port_buffers050.avg_buf_msgs     0.115334                       # Average number of messages in buffer
system.ruby.network.routers18.port_buffers050.avg_stall_time    62.529406                       # Average number of cycles messages are stalled in this MB
system.ruby.network.routers18.port_buffers051.avg_buf_msgs     0.056559                       # Average number of messages in buffer
system.ruby.network.routers18.port_buffers051.avg_stall_time    73.111711                       # Average number of cycles messages are stalled in this MB
system.ruby.network.routers18.port_buffers052.avg_buf_msgs     0.054943                       # Average number of messages in buffer
system.ruby.network.routers18.port_buffers052.avg_stall_time    72.166080                       # Average number of cycles messages are stalled in this MB
system.ruby.network.routers18.pwrStateResidencyTicks::UNDEFINED    379482531                       # Cumulative time (in ticks) in various power states
system.ruby.network.routers18.throttle0.link_utilization     0.210091                      
system.ruby.network.routers18.throttle0.msg_bytes.Request_Control::2      1270040                      
system.ruby.network.routers18.throttle0.msg_bytes.Response_Control::1       592008                      
system.ruby.network.routers18.throttle0.msg_bytes.Response_Data::1     10894104                      
system.ruby.network.routers18.throttle0.msg_count.Request_Control::2       158755                      
system.ruby.network.routers18.throttle0.msg_count.Response_Control::1        74001                      
system.ruby.network.routers18.throttle0.msg_count.Response_Data::1       151307                      
system.ruby.network.routers18.throttle1.link_utilization     0.210613                      
system.ruby.network.routers18.throttle1.msg_bytes.Request_Control::2      1272880                      
system.ruby.network.routers18.throttle1.msg_bytes.Response_Control::1       594720                      
system.ruby.network.routers18.throttle1.msg_bytes.Response_Data::1     10920240                      
system.ruby.network.routers18.throttle1.msg_count.Request_Control::2       159110                      
system.ruby.network.routers18.throttle1.msg_count.Response_Control::1        74340                      
system.ruby.network.routers18.throttle1.msg_count.Response_Data::1       151670                      
system.ruby.network.routers18.throttle10.link_utilization     0.211714                      
system.ruby.network.routers18.throttle10.msg_bytes.Request_Control::2      1279856                      
system.ruby.network.routers18.throttle10.msg_bytes.Response_Control::1       600144                      
system.ruby.network.routers18.throttle10.msg_bytes.Response_Data::1     10974672                      
system.ruby.network.routers18.throttle10.msg_count.Request_Control::2       159982                      
system.ruby.network.routers18.throttle10.msg_count.Response_Control::1        75018                      
system.ruby.network.routers18.throttle10.msg_count.Response_Data::1       152426                      
system.ruby.network.routers18.throttle11.link_utilization     0.210827                      
system.ruby.network.routers18.throttle11.msg_bytes.Request_Control::2      1275640                      
system.ruby.network.routers18.throttle11.msg_bytes.Response_Control::1       595056                      
system.ruby.network.routers18.throttle11.msg_bytes.Response_Data::1     10930104                      
system.ruby.network.routers18.throttle11.msg_count.Request_Control::2       159455                      
system.ruby.network.routers18.throttle11.msg_count.Response_Control::1        74382                      
system.ruby.network.routers18.throttle11.msg_count.Response_Data::1       151807                      
system.ruby.network.routers18.throttle12.link_utilization     0.211058                      
system.ruby.network.routers18.throttle12.msg_bytes.Request_Control::2      1276832                      
system.ruby.network.routers18.throttle12.msg_bytes.Response_Control::1       598240                      
system.ruby.network.routers18.throttle12.msg_bytes.Response_Data::1     10939752                      
system.ruby.network.routers18.throttle12.msg_count.Request_Control::2       159604                      
system.ruby.network.routers18.throttle12.msg_count.Response_Control::1        74780                      
system.ruby.network.routers18.throttle12.msg_count.Response_Data::1       151941                      
system.ruby.network.routers18.throttle13.link_utilization     0.211449                      
system.ruby.network.routers18.throttle13.msg_bytes.Request_Control::2      1277864                      
system.ruby.network.routers18.throttle13.msg_bytes.Response_Control::1       602816                      
system.ruby.network.routers18.throttle13.msg_bytes.Response_Data::1     10957896                      
system.ruby.network.routers18.throttle13.msg_count.Request_Control::2       159733                      
system.ruby.network.routers18.throttle13.msg_count.Response_Control::1        75352                      
system.ruby.network.routers18.throttle13.msg_count.Response_Data::1       152193                      
system.ruby.network.routers18.throttle14.link_utilization     0.210936                      
system.ruby.network.routers18.throttle14.msg_bytes.Request_Control::2      1274496                      
system.ruby.network.routers18.throttle14.msg_bytes.Response_Control::1       603208                      
system.ruby.network.routers18.throttle14.msg_bytes.Response_Data::1     10929744                      
system.ruby.network.routers18.throttle14.msg_count.Request_Control::2       159312                      
system.ruby.network.routers18.throttle14.msg_count.Response_Control::1        75401                      
system.ruby.network.routers18.throttle14.msg_count.Response_Data::1       151802                      
system.ruby.network.routers18.throttle15.link_utilization     0.212164                      
system.ruby.network.routers18.throttle15.msg_bytes.Request_Control::2      1283544                      
system.ruby.network.routers18.throttle15.msg_bytes.Response_Control::1       600800                      
system.ruby.network.routers18.throttle15.msg_bytes.Response_Data::1     10997640                      
system.ruby.network.routers18.throttle15.msg_count.Request_Control::2       160443                      
system.ruby.network.routers18.throttle15.msg_count.Response_Control::1        75100                      
system.ruby.network.routers18.throttle15.msg_count.Response_Data::1       152745                      
system.ruby.network.routers18.throttle16.link_utilization     4.346181                      
system.ruby.network.routers18.throttle16.msg_bytes.Control::0     19475136                      
system.ruby.network.routers18.throttle16.msg_bytes.Response_Control::1     10724976                      
system.ruby.network.routers18.throttle16.msg_bytes.Response_Control::2     18067688                      
system.ruby.network.routers18.throttle16.msg_bytes.Response_Data::1     97461000                      
system.ruby.network.routers18.throttle16.msg_bytes.Writeback_Control::0       628408                      
system.ruby.network.routers18.throttle16.msg_bytes.Writeback_Data::0     50438880                      
system.ruby.network.routers18.throttle16.msg_bytes.Writeback_Data::1     67091904                      
system.ruby.network.routers18.throttle16.msg_count.Control::0      2434392                      
system.ruby.network.routers18.throttle16.msg_count.Response_Control::1      1340622                      
system.ruby.network.routers18.throttle16.msg_count.Response_Control::2      2258461                      
system.ruby.network.routers18.throttle16.msg_count.Response_Data::1      1353625                      
system.ruby.network.routers18.throttle16.msg_count.Writeback_Control::0        78551                      
system.ruby.network.routers18.throttle16.msg_count.Writeback_Data::0       700540                      
system.ruby.network.routers18.throttle16.msg_count.Writeback_Data::1       931832                      
system.ruby.network.routers18.throttle17.link_utilization     1.300329                      
system.ruby.network.routers18.throttle17.msg_bytes.Control::0      9218288                      
system.ruby.network.routers18.throttle17.msg_bytes.Response_Control::1      1653760                      
system.ruby.network.routers18.throttle17.msg_bytes.Response_Data::1     68080320                      
system.ruby.network.routers18.throttle17.msg_count.Control::0      1152286                      
system.ruby.network.routers18.throttle17.msg_count.Response_Control::1       206720                      
system.ruby.network.routers18.throttle17.msg_count.Response_Data::1       945560                      
system.ruby.network.routers18.throttle2.link_utilization     0.211089                      
system.ruby.network.routers18.throttle2.msg_bytes.Request_Control::2      1275880                      
system.ruby.network.routers18.throttle2.msg_bytes.Response_Control::1       597384                      
system.ruby.network.routers18.throttle2.msg_bytes.Response_Data::1     10943496                      
system.ruby.network.routers18.throttle2.msg_count.Request_Control::2       159485                      
system.ruby.network.routers18.throttle2.msg_count.Response_Control::1        74673                      
system.ruby.network.routers18.throttle2.msg_count.Response_Data::1       151993                      
system.ruby.network.routers18.throttle3.link_utilization     0.211642                      
system.ruby.network.routers18.throttle3.msg_bytes.Request_Control::2      1278280                      
system.ruby.network.routers18.throttle3.msg_bytes.Response_Control::1       600936                      
system.ruby.network.routers18.throttle3.msg_bytes.Response_Data::1     10971072                      
system.ruby.network.routers18.throttle3.msg_count.Request_Control::2       159785                      
system.ruby.network.routers18.throttle3.msg_count.Response_Control::1        75117                      
system.ruby.network.routers18.throttle3.msg_count.Response_Data::1       152376                      
system.ruby.network.routers18.throttle4.link_utilization     0.211055                      
system.ruby.network.routers18.throttle4.msg_bytes.Request_Control::2      1274696                      
system.ruby.network.routers18.throttle4.msg_bytes.Response_Control::1       600336                      
system.ruby.network.routers18.throttle4.msg_bytes.Response_Data::1     10939608                      
system.ruby.network.routers18.throttle4.msg_count.Request_Control::2       159337                      
system.ruby.network.routers18.throttle4.msg_count.Response_Control::1        75042                      
system.ruby.network.routers18.throttle4.msg_count.Response_Data::1       151939                      
system.ruby.network.routers18.throttle5.link_utilization     0.210921                      
system.ruby.network.routers18.throttle5.msg_bytes.Request_Control::2      1273952                      
system.ruby.network.routers18.throttle5.msg_bytes.Response_Control::1       598616                      
system.ruby.network.routers18.throttle5.msg_bytes.Response_Data::1     10933992                      
system.ruby.network.routers18.throttle5.msg_count.Request_Control::2       159244                      
system.ruby.network.routers18.throttle5.msg_count.Response_Control::1        74827                      
system.ruby.network.routers18.throttle5.msg_count.Response_Data::1       151861                      
system.ruby.network.routers18.throttle6.link_utilization     0.210943                      
system.ruby.network.routers18.throttle6.msg_bytes.Request_Control::2      1276096                      
system.ruby.network.routers18.throttle6.msg_bytes.Response_Control::1       598152                      
system.ruby.network.routers18.throttle6.msg_bytes.Response_Data::1     10933632                      
system.ruby.network.routers18.throttle6.msg_count.Request_Control::2       159512                      
system.ruby.network.routers18.throttle6.msg_count.Response_Control::1        74769                      
system.ruby.network.routers18.throttle6.msg_count.Response_Data::1       151856                      
system.ruby.network.routers18.throttle7.link_utilization     0.209863                      
system.ruby.network.routers18.throttle7.msg_bytes.Request_Control::2      1268216                      
system.ruby.network.routers18.throttle7.msg_bytes.Response_Control::1       595328                      
system.ruby.network.routers18.throttle7.msg_bytes.Response_Data::1     10878768                      
system.ruby.network.routers18.throttle7.msg_count.Request_Control::2       158527                      
system.ruby.network.routers18.throttle7.msg_count.Response_Control::1        74416                      
system.ruby.network.routers18.throttle7.msg_count.Response_Data::1       151094                      
system.ruby.network.routers18.throttle8.link_utilization     0.211222                      
system.ruby.network.routers18.throttle8.msg_bytes.Request_Control::2      1278744                      
system.ruby.network.routers18.throttle8.msg_bytes.Response_Control::1       597384                      
system.ruby.network.routers18.throttle8.msg_bytes.Response_Data::1     10948680                      
system.ruby.network.routers18.throttle8.msg_count.Request_Control::2       159843                      
system.ruby.network.routers18.throttle8.msg_count.Response_Control::1        74673                      
system.ruby.network.routers18.throttle8.msg_count.Response_Data::1       152065                      
system.ruby.network.routers18.throttle9.link_utilization     0.211784                      
system.ruby.network.routers18.throttle9.msg_bytes.Request_Control::2      1281224                      
system.ruby.network.routers18.throttle9.msg_bytes.Response_Control::1       599664                      
system.ruby.network.routers18.throttle9.msg_bytes.Response_Data::1     10978056                      
system.ruby.network.routers18.throttle9.msg_count.Request_Control::2       160153                      
system.ruby.network.routers18.throttle9.msg_count.Response_Control::1        74958                      
system.ruby.network.routers18.throttle9.msg_count.Response_Data::1       152473                      
system.ruby.outstanding_req_hist_seqr::bucket_size            2                      
system.ruby.outstanding_req_hist_seqr::max_bucket           19                      
system.ruby.outstanding_req_hist_seqr::samples      2500656                      
system.ruby.outstanding_req_hist_seqr::mean    13.208567                      
system.ruby.outstanding_req_hist_seqr::gmean    12.853586                      
system.ruby.outstanding_req_hist_seqr::stdev     2.642462                      
system.ruby.outstanding_req_hist_seqr    |         847      0.03%      0.03% |        9253      0.37%      0.40% |       27689      1.11%      1.51% |       66730      2.67%      4.18% |      147140      5.88%     10.06% |      294967     11.80%     21.86% |      552286     22.09%     43.94% |      908015     36.31%     80.26% |      493729     19.74%    100.00% |           0      0.00%    100.00%
system.ruby.outstanding_req_hist_seqr::total      2500656                      
system.ruby.pwrStateResidencyTicks::UNDEFINED    379482531                       # Cumulative time (in ticks) in various power states
system.sys_port_proxy.pwrStateResidencyTicks::UNDEFINED    379482531                       # Cumulative time (in ticks) in various power states
system.voltage_domain.voltage                       1                       # Voltage in Volts

---------- End Simulation Statistics   ----------
