
---------- Begin Simulation Statistics ----------
final_tick                               2550705971150                       # Number of ticks from beginning of simulation (restored from checkpoints and never reset)
host_inst_rate                                 259090                       # Simulator instruction rate (inst/s)
host_mem_usage                                1038088                       # Number of bytes of host memory used
host_op_rate                                   680524                       # Simulator op (including micro ops) rate (op/s)
host_seconds                                  1709.13                       # Real time elapsed on the host
host_tick_rate                             1492400926                       # Simulator tick rate (ticks/s)
sim_freq                                 1000000000000                       # Frequency of simulated ticks
sim_insts                                   442818120                       # Number of instructions simulated
sim_ops                                    1163103804                       # Number of ops (including micro ops) simulated
sim_seconds                                  2.550706                       # Number of seconds simulated
sim_ticks                                2550705971150                       # Number of ticks simulated
system.clk_domain.clock                          1000                       # Clock period in ticks
system.cpu00.Branches                        67700690                       # Number of branches fetched
system.cpu00.apic_clk_domain.clock              26720                       # Clock period in ticks
system.cpu00.committedInsts                 442818120                       # Number of instructions committed
system.cpu00.committedOps                  1163103804                       # Number of ops (including micro ops) committed
system.cpu00.dtb.pwrStateResidencyTicks::UNDEFINED 2550705971150                       # Cumulative time (in ticks) in various power states
system.cpu00.dtb.rdAccesses                  88407619                       # TLB accesses on read requests
system.cpu00.dtb.rdMisses                        4734                       # TLB misses on read requests
system.cpu00.dtb.walker.pwrStateResidencyTicks::UNDEFINED 2550705971150                       # Cumulative time (in ticks) in various power states
system.cpu00.dtb.wrAccesses                  46266129                       # TLB accesses on write requests
system.cpu00.dtb.wrMisses                      262212                       # TLB misses on write requests
system.cpu00.idle_fraction                          0                       # Percentage of idle cycles
system.cpu00.interrupts.pwrStateResidencyTicks::UNDEFINED 2550705971150                       # Cumulative time (in ticks) in various power states
system.cpu00.itb.pwrStateResidencyTicks::UNDEFINED 2550705971150                       # Cumulative time (in ticks) in various power states
system.cpu00.itb.rdAccesses                         0                       # TLB accesses on read requests
system.cpu00.itb.rdMisses                           0                       # TLB misses on read requests
system.cpu00.itb.walker.pwrStateResidencyTicks::UNDEFINED 2550705971150                       # Cumulative time (in ticks) in various power states
system.cpu00.itb.wrAccesses                 590452280                       # TLB accesses on write requests
system.cpu00.itb.wrMisses                          60                       # TLB misses on write requests
system.cpu00.not_idle_fraction                      1                       # Percentage of non-idle cycles
system.cpu00.numCycles                     1527368844                       # number of cpu cycles simulated
system.cpu00.numWorkItemsCompleted                  0                       # number of work items this cpu completed
system.cpu00.numWorkItemsStarted                    0                       # number of work items this cpu started
system.cpu00.num_busy_cycles               1527368844                       # Number of busy cycles
system.cpu00.num_cc_register_reads         1069711529                       # number of times the CC registers were read
system.cpu00.num_cc_register_writes         393031796                       # number of times the CC registers were written
system.cpu00.num_conditional_control_insts     38337130                       # number of instructions that are conditional controls
system.cpu00.num_fp_alu_accesses             21271064                       # Number of float alu accesses
system.cpu00.num_fp_insts                    21271064                       # number of float instructions
system.cpu00.num_fp_register_reads           29660025                       # number of times the floating registers were read
system.cpu00.num_fp_register_writes          17000359                       # number of times the floating registers were written
system.cpu00.num_func_calls                  25166501                       # number of times a function call or return occured
system.cpu00.num_idle_cycles                        0                       # Number of idle cycles
system.cpu00.num_int_alu_accesses          1137421255                       # Number of integer alu accesses
system.cpu00.num_int_insts                 1137421255                       # number of integer instructions
system.cpu00.num_int_register_reads        2727234655                       # number of times the integer registers were read
system.cpu00.num_int_register_writes       1284286508                       # number of times the integer registers were written
system.cpu00.num_load_insts                  88407618                       # Number of load instructions
system.cpu00.num_mem_refs                   134673747                       # number of memory refs
system.cpu00.num_store_insts                 46266129                       # Number of store instructions
system.cpu00.num_vec_alu_accesses                   0                       # Number of vector alu accesses
system.cpu00.num_vec_insts                          0                       # number of vector instructions
system.cpu00.num_vec_register_reads                 0                       # number of times the vector registers were read
system.cpu00.num_vec_register_writes                0                       # number of times the vector registers were written
system.cpu00.op_class::No_OpClass            17219160      1.48%      1.48% # Class of executed instruction
system.cpu00.op_class::IntAlu               866142428     74.47%     75.95% # Class of executed instruction
system.cpu00.op_class::IntMult               12671558      1.09%     77.04% # Class of executed instruction
system.cpu00.op_class::IntDiv               119739349     10.29%     87.33% # Class of executed instruction
system.cpu00.op_class::FloatAdd                    12      0.00%     87.33% # Class of executed instruction
system.cpu00.op_class::FloatCmp                     0      0.00%     87.33% # Class of executed instruction
system.cpu00.op_class::FloatCvt                     0      0.00%     87.33% # Class of executed instruction
system.cpu00.op_class::FloatMult                    0      0.00%     87.33% # Class of executed instruction
system.cpu00.op_class::FloatMultAcc                 0      0.00%     87.33% # Class of executed instruction
system.cpu00.op_class::FloatDiv                     0      0.00%     87.33% # Class of executed instruction
system.cpu00.op_class::FloatMisc                    0      0.00%     87.33% # Class of executed instruction
system.cpu00.op_class::FloatSqrt                    0      0.00%     87.33% # Class of executed instruction
system.cpu00.op_class::SimdAdd                      0      0.00%     87.33% # Class of executed instruction
system.cpu00.op_class::SimdAddAcc                   0      0.00%     87.33% # Class of executed instruction
system.cpu00.op_class::SimdAlu                     88      0.00%     87.33% # Class of executed instruction
system.cpu00.op_class::SimdCmp                      0      0.00%     87.33% # Class of executed instruction
system.cpu00.op_class::SimdCvt                    110      0.00%     87.33% # Class of executed instruction
system.cpu00.op_class::SimdMisc               4194499      0.36%     87.69% # Class of executed instruction
system.cpu00.op_class::SimdMult                     0      0.00%     87.69% # Class of executed instruction
system.cpu00.op_class::SimdMultAcc                  0      0.00%     87.69% # Class of executed instruction
system.cpu00.op_class::SimdShift                    0      0.00%     87.69% # Class of executed instruction
system.cpu00.op_class::SimdShiftAcc                 0      0.00%     87.69% # Class of executed instruction
system.cpu00.op_class::SimdSqrt                     0      0.00%     87.69% # Class of executed instruction
system.cpu00.op_class::SimdFloatAdd             72193      0.01%     87.70% # Class of executed instruction
system.cpu00.op_class::SimdFloatAlu                 0      0.00%     87.70% # Class of executed instruction
system.cpu00.op_class::SimdFloatCmp                 0      0.00%     87.70% # Class of executed instruction
system.cpu00.op_class::SimdFloatCvt           4194307      0.36%     88.06% # Class of executed instruction
system.cpu00.op_class::SimdFloatDiv           4194304      0.36%     88.42% # Class of executed instruction
system.cpu00.op_class::SimdFloatMisc                0      0.00%     88.42% # Class of executed instruction
system.cpu00.op_class::SimdFloatMult             2048      0.00%     88.42% # Class of executed instruction
system.cpu00.op_class::SimdFloatMultAcc             0      0.00%     88.42% # Class of executed instruction
system.cpu00.op_class::SimdFloatSqrt                1      0.00%     88.42% # Class of executed instruction
system.cpu00.op_class::SimdAes                      0      0.00%     88.42% # Class of executed instruction
system.cpu00.op_class::SimdAesMix                   0      0.00%     88.42% # Class of executed instruction
system.cpu00.op_class::SimdSha1Hash                 0      0.00%     88.42% # Class of executed instruction
system.cpu00.op_class::SimdSha1Hash2                0      0.00%     88.42% # Class of executed instruction
system.cpu00.op_class::SimdSha256Hash               0      0.00%     88.42% # Class of executed instruction
system.cpu00.op_class::SimdSha256Hash2              0      0.00%     88.42% # Class of executed instruction
system.cpu00.op_class::SimdShaSigma2                0      0.00%     88.42% # Class of executed instruction
system.cpu00.op_class::SimdShaSigma3                0      0.00%     88.42% # Class of executed instruction
system.cpu00.op_class::MemRead               84064761      7.23%     95.65% # Class of executed instruction
system.cpu00.op_class::MemWrite              41995536      3.61%     99.26% # Class of executed instruction
system.cpu00.op_class::FloatMemRead           4342857      0.37%     99.63% # Class of executed instruction
system.cpu00.op_class::FloatMemWrite          4270593      0.37%    100.00% # Class of executed instruction
system.cpu00.op_class::IprAccess                    0      0.00%    100.00% # Class of executed instruction
system.cpu00.op_class::InstPrefetch                 0      0.00%    100.00% # Class of executed instruction
system.cpu00.op_class::total               1163103804                       # Class of executed instruction
system.cpu00.pwrStateResidencyTicks::ON  2550705971150                       # Cumulative time (in ticks) in various power states
system.cpu00.workload.numSyscalls                  41                       # Number of system calls
system.cpu01.apic_clk_domain.clock              26720                       # Clock period in ticks
system.cpu01.committedInsts                         0                       # Number of instructions committed
system.cpu01.committedOps                           0                       # Number of ops (including micro ops) committed
system.cpu01.dtb.pwrStateResidencyTicks::UNDEFINED 2550705971150                       # Cumulative time (in ticks) in various power states
system.cpu01.dtb.rdAccesses                         0                       # TLB accesses on read requests
system.cpu01.dtb.rdMisses                           0                       # TLB misses on read requests
system.cpu01.dtb.walker.pwrStateResidencyTicks::UNDEFINED 2550705971150                       # Cumulative time (in ticks) in various power states
system.cpu01.dtb.wrAccesses                         0                       # TLB accesses on write requests
system.cpu01.dtb.wrMisses                           0                       # TLB misses on write requests
system.cpu01.idle_fraction                          1                       # Percentage of idle cycles
system.cpu01.interrupts.pwrStateResidencyTicks::UNDEFINED 2550705971150                       # Cumulative time (in ticks) in various power states
system.cpu01.itb.pwrStateResidencyTicks::UNDEFINED 2550705971150                       # Cumulative time (in ticks) in various power states
system.cpu01.itb.rdAccesses                         0                       # TLB accesses on read requests
system.cpu01.itb.rdMisses                           0                       # TLB misses on read requests
system.cpu01.itb.walker.pwrStateResidencyTicks::UNDEFINED 2550705971150                       # Cumulative time (in ticks) in various power states
system.cpu01.itb.wrAccesses                         0                       # TLB accesses on write requests
system.cpu01.itb.wrMisses                           0                       # TLB misses on write requests
system.cpu01.not_idle_fraction                      0                       # Percentage of non-idle cycles
system.cpu01.numCycles                              0                       # number of cpu cycles simulated
system.cpu01.numWorkItemsCompleted                  0                       # number of work items this cpu completed
system.cpu01.numWorkItemsStarted                    0                       # number of work items this cpu started
system.cpu01.num_busy_cycles                        0                       # Number of busy cycles
system.cpu01.num_conditional_control_insts            0                       # number of instructions that are conditional controls
system.cpu01.num_fp_alu_accesses                    0                       # Number of float alu accesses
system.cpu01.num_fp_insts                           0                       # number of float instructions
system.cpu01.num_fp_register_reads                  0                       # number of times the floating registers were read
system.cpu01.num_fp_register_writes                 0                       # number of times the floating registers were written
system.cpu01.num_func_calls                         0                       # number of times a function call or return occured
system.cpu01.num_idle_cycles                        0                       # Number of idle cycles
system.cpu01.num_int_alu_accesses                   0                       # Number of integer alu accesses
system.cpu01.num_int_insts                          0                       # number of integer instructions
system.cpu01.num_int_register_reads                 0                       # number of times the integer registers were read
system.cpu01.num_int_register_writes                0                       # number of times the integer registers were written
system.cpu01.num_load_insts                         0                       # Number of load instructions
system.cpu01.num_mem_refs                           0                       # number of memory refs
system.cpu01.num_store_insts                        0                       # Number of store instructions
system.cpu01.num_vec_alu_accesses                   0                       # Number of vector alu accesses
system.cpu01.num_vec_insts                          0                       # number of vector instructions
system.cpu01.num_vec_register_reads                 0                       # number of times the vector registers were read
system.cpu01.num_vec_register_writes                0                       # number of times the vector registers were written
system.cpu01.op_class::No_OpClass                   0                       # Class of executed instruction
system.cpu01.op_class::IntAlu                       0                       # Class of executed instruction
system.cpu01.op_class::IntMult                      0                       # Class of executed instruction
system.cpu01.op_class::IntDiv                       0                       # Class of executed instruction
system.cpu01.op_class::FloatAdd                     0                       # Class of executed instruction
system.cpu01.op_class::FloatCmp                     0                       # Class of executed instruction
system.cpu01.op_class::FloatCvt                     0                       # Class of executed instruction
system.cpu01.op_class::FloatMult                    0                       # Class of executed instruction
system.cpu01.op_class::FloatMultAcc                 0                       # Class of executed instruction
system.cpu01.op_class::FloatDiv                     0                       # Class of executed instruction
system.cpu01.op_class::FloatMisc                    0                       # Class of executed instruction
system.cpu01.op_class::FloatSqrt                    0                       # Class of executed instruction
system.cpu01.op_class::SimdAdd                      0                       # Class of executed instruction
system.cpu01.op_class::SimdAddAcc                   0                       # Class of executed instruction
system.cpu01.op_class::SimdAlu                      0                       # Class of executed instruction
system.cpu01.op_class::SimdCmp                      0                       # Class of executed instruction
system.cpu01.op_class::SimdCvt                      0                       # Class of executed instruction
system.cpu01.op_class::SimdMisc                     0                       # Class of executed instruction
system.cpu01.op_class::SimdMult                     0                       # Class of executed instruction
system.cpu01.op_class::SimdMultAcc                  0                       # Class of executed instruction
system.cpu01.op_class::SimdShift                    0                       # Class of executed instruction
system.cpu01.op_class::SimdShiftAcc                 0                       # Class of executed instruction
system.cpu01.op_class::SimdSqrt                     0                       # Class of executed instruction
system.cpu01.op_class::SimdFloatAdd                 0                       # Class of executed instruction
system.cpu01.op_class::SimdFloatAlu                 0                       # Class of executed instruction
system.cpu01.op_class::SimdFloatCmp                 0                       # Class of executed instruction
system.cpu01.op_class::SimdFloatCvt                 0                       # Class of executed instruction
system.cpu01.op_class::SimdFloatDiv                 0                       # Class of executed instruction
system.cpu01.op_class::SimdFloatMisc                0                       # Class of executed instruction
system.cpu01.op_class::SimdFloatMult                0                       # Class of executed instruction
system.cpu01.op_class::SimdFloatMultAcc             0                       # Class of executed instruction
system.cpu01.op_class::SimdFloatSqrt                0                       # Class of executed instruction
system.cpu01.op_class::SimdAes                      0                       # Class of executed instruction
system.cpu01.op_class::SimdAesMix                   0                       # Class of executed instruction
system.cpu01.op_class::SimdSha1Hash                 0                       # Class of executed instruction
system.cpu01.op_class::SimdSha1Hash2                0                       # Class of executed instruction
system.cpu01.op_class::SimdSha256Hash               0                       # Class of executed instruction
system.cpu01.op_class::SimdSha256Hash2              0                       # Class of executed instruction
system.cpu01.op_class::SimdShaSigma2                0                       # Class of executed instruction
system.cpu01.op_class::SimdShaSigma3                0                       # Class of executed instruction
system.cpu01.op_class::MemRead                      0                       # Class of executed instruction
system.cpu01.op_class::MemWrite                     0                       # Class of executed instruction
system.cpu01.op_class::FloatMemRead                 0                       # Class of executed instruction
system.cpu01.op_class::FloatMemWrite                0                       # Class of executed instruction
system.cpu01.op_class::IprAccess                    0                       # Class of executed instruction
system.cpu01.op_class::InstPrefetch                 0                       # Class of executed instruction
system.cpu01.op_class::total                        0                       # Class of executed instruction
system.cpu01.pwrStateResidencyTicks::ON  2550705971150                       # Cumulative time (in ticks) in various power states
system.cpu02.apic_clk_domain.clock              26720                       # Clock period in ticks
system.cpu02.committedInsts                         0                       # Number of instructions committed
system.cpu02.committedOps                           0                       # Number of ops (including micro ops) committed
system.cpu02.dtb.pwrStateResidencyTicks::UNDEFINED 2550705971150                       # Cumulative time (in ticks) in various power states
system.cpu02.dtb.rdAccesses                         0                       # TLB accesses on read requests
system.cpu02.dtb.rdMisses                           0                       # TLB misses on read requests
system.cpu02.dtb.walker.pwrStateResidencyTicks::UNDEFINED 2550705971150                       # Cumulative time (in ticks) in various power states
system.cpu02.dtb.wrAccesses                         0                       # TLB accesses on write requests
system.cpu02.dtb.wrMisses                           0                       # TLB misses on write requests
system.cpu02.idle_fraction                          1                       # Percentage of idle cycles
system.cpu02.interrupts.pwrStateResidencyTicks::UNDEFINED 2550705971150                       # Cumulative time (in ticks) in various power states
system.cpu02.itb.pwrStateResidencyTicks::UNDEFINED 2550705971150                       # Cumulative time (in ticks) in various power states
system.cpu02.itb.rdAccesses                         0                       # TLB accesses on read requests
system.cpu02.itb.rdMisses                           0                       # TLB misses on read requests
system.cpu02.itb.walker.pwrStateResidencyTicks::UNDEFINED 2550705971150                       # Cumulative time (in ticks) in various power states
system.cpu02.itb.wrAccesses                         0                       # TLB accesses on write requests
system.cpu02.itb.wrMisses                           0                       # TLB misses on write requests
system.cpu02.not_idle_fraction                      0                       # Percentage of non-idle cycles
system.cpu02.numCycles                              0                       # number of cpu cycles simulated
system.cpu02.numWorkItemsCompleted                  0                       # number of work items this cpu completed
system.cpu02.numWorkItemsStarted                    0                       # number of work items this cpu started
system.cpu02.num_busy_cycles                        0                       # Number of busy cycles
system.cpu02.num_conditional_control_insts            0                       # number of instructions that are conditional controls
system.cpu02.num_fp_alu_accesses                    0                       # Number of float alu accesses
system.cpu02.num_fp_insts                           0                       # number of float instructions
system.cpu02.num_fp_register_reads                  0                       # number of times the floating registers were read
system.cpu02.num_fp_register_writes                 0                       # number of times the floating registers were written
system.cpu02.num_func_calls                         0                       # number of times a function call or return occured
system.cpu02.num_idle_cycles                        0                       # Number of idle cycles
system.cpu02.num_int_alu_accesses                   0                       # Number of integer alu accesses
system.cpu02.num_int_insts                          0                       # number of integer instructions
system.cpu02.num_int_register_reads                 0                       # number of times the integer registers were read
system.cpu02.num_int_register_writes                0                       # number of times the integer registers were written
system.cpu02.num_load_insts                         0                       # Number of load instructions
system.cpu02.num_mem_refs                           0                       # number of memory refs
system.cpu02.num_store_insts                        0                       # Number of store instructions
system.cpu02.num_vec_alu_accesses                   0                       # Number of vector alu accesses
system.cpu02.num_vec_insts                          0                       # number of vector instructions
system.cpu02.num_vec_register_reads                 0                       # number of times the vector registers were read
system.cpu02.num_vec_register_writes                0                       # number of times the vector registers were written
system.cpu02.op_class::No_OpClass                   0                       # Class of executed instruction
system.cpu02.op_class::IntAlu                       0                       # Class of executed instruction
system.cpu02.op_class::IntMult                      0                       # Class of executed instruction
system.cpu02.op_class::IntDiv                       0                       # Class of executed instruction
system.cpu02.op_class::FloatAdd                     0                       # Class of executed instruction
system.cpu02.op_class::FloatCmp                     0                       # Class of executed instruction
system.cpu02.op_class::FloatCvt                     0                       # Class of executed instruction
system.cpu02.op_class::FloatMult                    0                       # Class of executed instruction
system.cpu02.op_class::FloatMultAcc                 0                       # Class of executed instruction
system.cpu02.op_class::FloatDiv                     0                       # Class of executed instruction
system.cpu02.op_class::FloatMisc                    0                       # Class of executed instruction
system.cpu02.op_class::FloatSqrt                    0                       # Class of executed instruction
system.cpu02.op_class::SimdAdd                      0                       # Class of executed instruction
system.cpu02.op_class::SimdAddAcc                   0                       # Class of executed instruction
system.cpu02.op_class::SimdAlu                      0                       # Class of executed instruction
system.cpu02.op_class::SimdCmp                      0                       # Class of executed instruction
system.cpu02.op_class::SimdCvt                      0                       # Class of executed instruction
system.cpu02.op_class::SimdMisc                     0                       # Class of executed instruction
system.cpu02.op_class::SimdMult                     0                       # Class of executed instruction
system.cpu02.op_class::SimdMultAcc                  0                       # Class of executed instruction
system.cpu02.op_class::SimdShift                    0                       # Class of executed instruction
system.cpu02.op_class::SimdShiftAcc                 0                       # Class of executed instruction
system.cpu02.op_class::SimdSqrt                     0                       # Class of executed instruction
system.cpu02.op_class::SimdFloatAdd                 0                       # Class of executed instruction
system.cpu02.op_class::SimdFloatAlu                 0                       # Class of executed instruction
system.cpu02.op_class::SimdFloatCmp                 0                       # Class of executed instruction
system.cpu02.op_class::SimdFloatCvt                 0                       # Class of executed instruction
system.cpu02.op_class::SimdFloatDiv                 0                       # Class of executed instruction
system.cpu02.op_class::SimdFloatMisc                0                       # Class of executed instruction
system.cpu02.op_class::SimdFloatMult                0                       # Class of executed instruction
system.cpu02.op_class::SimdFloatMultAcc             0                       # Class of executed instruction
system.cpu02.op_class::SimdFloatSqrt                0                       # Class of executed instruction
system.cpu02.op_class::SimdAes                      0                       # Class of executed instruction
system.cpu02.op_class::SimdAesMix                   0                       # Class of executed instruction
system.cpu02.op_class::SimdSha1Hash                 0                       # Class of executed instruction
system.cpu02.op_class::SimdSha1Hash2                0                       # Class of executed instruction
system.cpu02.op_class::SimdSha256Hash               0                       # Class of executed instruction
system.cpu02.op_class::SimdSha256Hash2              0                       # Class of executed instruction
system.cpu02.op_class::SimdShaSigma2                0                       # Class of executed instruction
system.cpu02.op_class::SimdShaSigma3                0                       # Class of executed instruction
system.cpu02.op_class::MemRead                      0                       # Class of executed instruction
system.cpu02.op_class::MemWrite                     0                       # Class of executed instruction
system.cpu02.op_class::FloatMemRead                 0                       # Class of executed instruction
system.cpu02.op_class::FloatMemWrite                0                       # Class of executed instruction
system.cpu02.op_class::IprAccess                    0                       # Class of executed instruction
system.cpu02.op_class::InstPrefetch                 0                       # Class of executed instruction
system.cpu02.op_class::total                        0                       # Class of executed instruction
system.cpu02.pwrStateResidencyTicks::ON  2550705971150                       # Cumulative time (in ticks) in various power states
system.cpu03.apic_clk_domain.clock              26720                       # Clock period in ticks
system.cpu03.committedInsts                         0                       # Number of instructions committed
system.cpu03.committedOps                           0                       # Number of ops (including micro ops) committed
system.cpu03.dtb.pwrStateResidencyTicks::UNDEFINED 2550705971150                       # Cumulative time (in ticks) in various power states
system.cpu03.dtb.rdAccesses                         0                       # TLB accesses on read requests
system.cpu03.dtb.rdMisses                           0                       # TLB misses on read requests
system.cpu03.dtb.walker.pwrStateResidencyTicks::UNDEFINED 2550705971150                       # Cumulative time (in ticks) in various power states
system.cpu03.dtb.wrAccesses                         0                       # TLB accesses on write requests
system.cpu03.dtb.wrMisses                           0                       # TLB misses on write requests
system.cpu03.idle_fraction                          1                       # Percentage of idle cycles
system.cpu03.interrupts.pwrStateResidencyTicks::UNDEFINED 2550705971150                       # Cumulative time (in ticks) in various power states
system.cpu03.itb.pwrStateResidencyTicks::UNDEFINED 2550705971150                       # Cumulative time (in ticks) in various power states
system.cpu03.itb.rdAccesses                         0                       # TLB accesses on read requests
system.cpu03.itb.rdMisses                           0                       # TLB misses on read requests
system.cpu03.itb.walker.pwrStateResidencyTicks::UNDEFINED 2550705971150                       # Cumulative time (in ticks) in various power states
system.cpu03.itb.wrAccesses                         0                       # TLB accesses on write requests
system.cpu03.itb.wrMisses                           0                       # TLB misses on write requests
system.cpu03.not_idle_fraction                      0                       # Percentage of non-idle cycles
system.cpu03.numCycles                              0                       # number of cpu cycles simulated
system.cpu03.numWorkItemsCompleted                  0                       # number of work items this cpu completed
system.cpu03.numWorkItemsStarted                    0                       # number of work items this cpu started
system.cpu03.num_busy_cycles                        0                       # Number of busy cycles
system.cpu03.num_conditional_control_insts            0                       # number of instructions that are conditional controls
system.cpu03.num_fp_alu_accesses                    0                       # Number of float alu accesses
system.cpu03.num_fp_insts                           0                       # number of float instructions
system.cpu03.num_fp_register_reads                  0                       # number of times the floating registers were read
system.cpu03.num_fp_register_writes                 0                       # number of times the floating registers were written
system.cpu03.num_func_calls                         0                       # number of times a function call or return occured
system.cpu03.num_idle_cycles                        0                       # Number of idle cycles
system.cpu03.num_int_alu_accesses                   0                       # Number of integer alu accesses
system.cpu03.num_int_insts                          0                       # number of integer instructions
system.cpu03.num_int_register_reads                 0                       # number of times the integer registers were read
system.cpu03.num_int_register_writes                0                       # number of times the integer registers were written
system.cpu03.num_load_insts                         0                       # Number of load instructions
system.cpu03.num_mem_refs                           0                       # number of memory refs
system.cpu03.num_store_insts                        0                       # Number of store instructions
system.cpu03.num_vec_alu_accesses                   0                       # Number of vector alu accesses
system.cpu03.num_vec_insts                          0                       # number of vector instructions
system.cpu03.num_vec_register_reads                 0                       # number of times the vector registers were read
system.cpu03.num_vec_register_writes                0                       # number of times the vector registers were written
system.cpu03.op_class::No_OpClass                   0                       # Class of executed instruction
system.cpu03.op_class::IntAlu                       0                       # Class of executed instruction
system.cpu03.op_class::IntMult                      0                       # Class of executed instruction
system.cpu03.op_class::IntDiv                       0                       # Class of executed instruction
system.cpu03.op_class::FloatAdd                     0                       # Class of executed instruction
system.cpu03.op_class::FloatCmp                     0                       # Class of executed instruction
system.cpu03.op_class::FloatCvt                     0                       # Class of executed instruction
system.cpu03.op_class::FloatMult                    0                       # Class of executed instruction
system.cpu03.op_class::FloatMultAcc                 0                       # Class of executed instruction
system.cpu03.op_class::FloatDiv                     0                       # Class of executed instruction
system.cpu03.op_class::FloatMisc                    0                       # Class of executed instruction
system.cpu03.op_class::FloatSqrt                    0                       # Class of executed instruction
system.cpu03.op_class::SimdAdd                      0                       # Class of executed instruction
system.cpu03.op_class::SimdAddAcc                   0                       # Class of executed instruction
system.cpu03.op_class::SimdAlu                      0                       # Class of executed instruction
system.cpu03.op_class::SimdCmp                      0                       # Class of executed instruction
system.cpu03.op_class::SimdCvt                      0                       # Class of executed instruction
system.cpu03.op_class::SimdMisc                     0                       # Class of executed instruction
system.cpu03.op_class::SimdMult                     0                       # Class of executed instruction
system.cpu03.op_class::SimdMultAcc                  0                       # Class of executed instruction
system.cpu03.op_class::SimdShift                    0                       # Class of executed instruction
system.cpu03.op_class::SimdShiftAcc                 0                       # Class of executed instruction
system.cpu03.op_class::SimdSqrt                     0                       # Class of executed instruction
system.cpu03.op_class::SimdFloatAdd                 0                       # Class of executed instruction
system.cpu03.op_class::SimdFloatAlu                 0                       # Class of executed instruction
system.cpu03.op_class::SimdFloatCmp                 0                       # Class of executed instruction
system.cpu03.op_class::SimdFloatCvt                 0                       # Class of executed instruction
system.cpu03.op_class::SimdFloatDiv                 0                       # Class of executed instruction
system.cpu03.op_class::SimdFloatMisc                0                       # Class of executed instruction
system.cpu03.op_class::SimdFloatMult                0                       # Class of executed instruction
system.cpu03.op_class::SimdFloatMultAcc             0                       # Class of executed instruction
system.cpu03.op_class::SimdFloatSqrt                0                       # Class of executed instruction
system.cpu03.op_class::SimdAes                      0                       # Class of executed instruction
system.cpu03.op_class::SimdAesMix                   0                       # Class of executed instruction
system.cpu03.op_class::SimdSha1Hash                 0                       # Class of executed instruction
system.cpu03.op_class::SimdSha1Hash2                0                       # Class of executed instruction
system.cpu03.op_class::SimdSha256Hash               0                       # Class of executed instruction
system.cpu03.op_class::SimdSha256Hash2              0                       # Class of executed instruction
system.cpu03.op_class::SimdShaSigma2                0                       # Class of executed instruction
system.cpu03.op_class::SimdShaSigma3                0                       # Class of executed instruction
system.cpu03.op_class::MemRead                      0                       # Class of executed instruction
system.cpu03.op_class::MemWrite                     0                       # Class of executed instruction
system.cpu03.op_class::FloatMemRead                 0                       # Class of executed instruction
system.cpu03.op_class::FloatMemWrite                0                       # Class of executed instruction
system.cpu03.op_class::IprAccess                    0                       # Class of executed instruction
system.cpu03.op_class::InstPrefetch                 0                       # Class of executed instruction
system.cpu03.op_class::total                        0                       # Class of executed instruction
system.cpu03.pwrStateResidencyTicks::ON  2550705971150                       # Cumulative time (in ticks) in various power states
system.cpu04.apic_clk_domain.clock              26720                       # Clock period in ticks
system.cpu04.committedInsts                         0                       # Number of instructions committed
system.cpu04.committedOps                           0                       # Number of ops (including micro ops) committed
system.cpu04.dtb.pwrStateResidencyTicks::UNDEFINED 2550705971150                       # Cumulative time (in ticks) in various power states
system.cpu04.dtb.rdAccesses                         0                       # TLB accesses on read requests
system.cpu04.dtb.rdMisses                           0                       # TLB misses on read requests
system.cpu04.dtb.walker.pwrStateResidencyTicks::UNDEFINED 2550705971150                       # Cumulative time (in ticks) in various power states
system.cpu04.dtb.wrAccesses                         0                       # TLB accesses on write requests
system.cpu04.dtb.wrMisses                           0                       # TLB misses on write requests
system.cpu04.idle_fraction                          1                       # Percentage of idle cycles
system.cpu04.interrupts.pwrStateResidencyTicks::UNDEFINED 2550705971150                       # Cumulative time (in ticks) in various power states
system.cpu04.itb.pwrStateResidencyTicks::UNDEFINED 2550705971150                       # Cumulative time (in ticks) in various power states
system.cpu04.itb.rdAccesses                         0                       # TLB accesses on read requests
system.cpu04.itb.rdMisses                           0                       # TLB misses on read requests
system.cpu04.itb.walker.pwrStateResidencyTicks::UNDEFINED 2550705971150                       # Cumulative time (in ticks) in various power states
system.cpu04.itb.wrAccesses                         0                       # TLB accesses on write requests
system.cpu04.itb.wrMisses                           0                       # TLB misses on write requests
system.cpu04.not_idle_fraction                      0                       # Percentage of non-idle cycles
system.cpu04.numCycles                              0                       # number of cpu cycles simulated
system.cpu04.numWorkItemsCompleted                  0                       # number of work items this cpu completed
system.cpu04.numWorkItemsStarted                    0                       # number of work items this cpu started
system.cpu04.num_busy_cycles                        0                       # Number of busy cycles
system.cpu04.num_conditional_control_insts            0                       # number of instructions that are conditional controls
system.cpu04.num_fp_alu_accesses                    0                       # Number of float alu accesses
system.cpu04.num_fp_insts                           0                       # number of float instructions
system.cpu04.num_fp_register_reads                  0                       # number of times the floating registers were read
system.cpu04.num_fp_register_writes                 0                       # number of times the floating registers were written
system.cpu04.num_func_calls                         0                       # number of times a function call or return occured
system.cpu04.num_idle_cycles                        0                       # Number of idle cycles
system.cpu04.num_int_alu_accesses                   0                       # Number of integer alu accesses
system.cpu04.num_int_insts                          0                       # number of integer instructions
system.cpu04.num_int_register_reads                 0                       # number of times the integer registers were read
system.cpu04.num_int_register_writes                0                       # number of times the integer registers were written
system.cpu04.num_load_insts                         0                       # Number of load instructions
system.cpu04.num_mem_refs                           0                       # number of memory refs
system.cpu04.num_store_insts                        0                       # Number of store instructions
system.cpu04.num_vec_alu_accesses                   0                       # Number of vector alu accesses
system.cpu04.num_vec_insts                          0                       # number of vector instructions
system.cpu04.num_vec_register_reads                 0                       # number of times the vector registers were read
system.cpu04.num_vec_register_writes                0                       # number of times the vector registers were written
system.cpu04.op_class::No_OpClass                   0                       # Class of executed instruction
system.cpu04.op_class::IntAlu                       0                       # Class of executed instruction
system.cpu04.op_class::IntMult                      0                       # Class of executed instruction
system.cpu04.op_class::IntDiv                       0                       # Class of executed instruction
system.cpu04.op_class::FloatAdd                     0                       # Class of executed instruction
system.cpu04.op_class::FloatCmp                     0                       # Class of executed instruction
system.cpu04.op_class::FloatCvt                     0                       # Class of executed instruction
system.cpu04.op_class::FloatMult                    0                       # Class of executed instruction
system.cpu04.op_class::FloatMultAcc                 0                       # Class of executed instruction
system.cpu04.op_class::FloatDiv                     0                       # Class of executed instruction
system.cpu04.op_class::FloatMisc                    0                       # Class of executed instruction
system.cpu04.op_class::FloatSqrt                    0                       # Class of executed instruction
system.cpu04.op_class::SimdAdd                      0                       # Class of executed instruction
system.cpu04.op_class::SimdAddAcc                   0                       # Class of executed instruction
system.cpu04.op_class::SimdAlu                      0                       # Class of executed instruction
system.cpu04.op_class::SimdCmp                      0                       # Class of executed instruction
system.cpu04.op_class::SimdCvt                      0                       # Class of executed instruction
system.cpu04.op_class::SimdMisc                     0                       # Class of executed instruction
system.cpu04.op_class::SimdMult                     0                       # Class of executed instruction
system.cpu04.op_class::SimdMultAcc                  0                       # Class of executed instruction
system.cpu04.op_class::SimdShift                    0                       # Class of executed instruction
system.cpu04.op_class::SimdShiftAcc                 0                       # Class of executed instruction
system.cpu04.op_class::SimdSqrt                     0                       # Class of executed instruction
system.cpu04.op_class::SimdFloatAdd                 0                       # Class of executed instruction
system.cpu04.op_class::SimdFloatAlu                 0                       # Class of executed instruction
system.cpu04.op_class::SimdFloatCmp                 0                       # Class of executed instruction
system.cpu04.op_class::SimdFloatCvt                 0                       # Class of executed instruction
system.cpu04.op_class::SimdFloatDiv                 0                       # Class of executed instruction
system.cpu04.op_class::SimdFloatMisc                0                       # Class of executed instruction
system.cpu04.op_class::SimdFloatMult                0                       # Class of executed instruction
system.cpu04.op_class::SimdFloatMultAcc             0                       # Class of executed instruction
system.cpu04.op_class::SimdFloatSqrt                0                       # Class of executed instruction
system.cpu04.op_class::SimdAes                      0                       # Class of executed instruction
system.cpu04.op_class::SimdAesMix                   0                       # Class of executed instruction
system.cpu04.op_class::SimdSha1Hash                 0                       # Class of executed instruction
system.cpu04.op_class::SimdSha1Hash2                0                       # Class of executed instruction
system.cpu04.op_class::SimdSha256Hash               0                       # Class of executed instruction
system.cpu04.op_class::SimdSha256Hash2              0                       # Class of executed instruction
system.cpu04.op_class::SimdShaSigma2                0                       # Class of executed instruction
system.cpu04.op_class::SimdShaSigma3                0                       # Class of executed instruction
system.cpu04.op_class::MemRead                      0                       # Class of executed instruction
system.cpu04.op_class::MemWrite                     0                       # Class of executed instruction
system.cpu04.op_class::FloatMemRead                 0                       # Class of executed instruction
system.cpu04.op_class::FloatMemWrite                0                       # Class of executed instruction
system.cpu04.op_class::IprAccess                    0                       # Class of executed instruction
system.cpu04.op_class::InstPrefetch                 0                       # Class of executed instruction
system.cpu04.op_class::total                        0                       # Class of executed instruction
system.cpu04.pwrStateResidencyTicks::ON  2550705971150                       # Cumulative time (in ticks) in various power states
system.cpu05.apic_clk_domain.clock              26720                       # Clock period in ticks
system.cpu05.committedInsts                         0                       # Number of instructions committed
system.cpu05.committedOps                           0                       # Number of ops (including micro ops) committed
system.cpu05.dtb.pwrStateResidencyTicks::UNDEFINED 2550705971150                       # Cumulative time (in ticks) in various power states
system.cpu05.dtb.rdAccesses                         0                       # TLB accesses on read requests
system.cpu05.dtb.rdMisses                           0                       # TLB misses on read requests
system.cpu05.dtb.walker.pwrStateResidencyTicks::UNDEFINED 2550705971150                       # Cumulative time (in ticks) in various power states
system.cpu05.dtb.wrAccesses                         0                       # TLB accesses on write requests
system.cpu05.dtb.wrMisses                           0                       # TLB misses on write requests
system.cpu05.idle_fraction                          1                       # Percentage of idle cycles
system.cpu05.interrupts.pwrStateResidencyTicks::UNDEFINED 2550705971150                       # Cumulative time (in ticks) in various power states
system.cpu05.itb.pwrStateResidencyTicks::UNDEFINED 2550705971150                       # Cumulative time (in ticks) in various power states
system.cpu05.itb.rdAccesses                         0                       # TLB accesses on read requests
system.cpu05.itb.rdMisses                           0                       # TLB misses on read requests
system.cpu05.itb.walker.pwrStateResidencyTicks::UNDEFINED 2550705971150                       # Cumulative time (in ticks) in various power states
system.cpu05.itb.wrAccesses                         0                       # TLB accesses on write requests
system.cpu05.itb.wrMisses                           0                       # TLB misses on write requests
system.cpu05.not_idle_fraction                      0                       # Percentage of non-idle cycles
system.cpu05.numCycles                              0                       # number of cpu cycles simulated
system.cpu05.numWorkItemsCompleted                  0                       # number of work items this cpu completed
system.cpu05.numWorkItemsStarted                    0                       # number of work items this cpu started
system.cpu05.num_busy_cycles                        0                       # Number of busy cycles
system.cpu05.num_conditional_control_insts            0                       # number of instructions that are conditional controls
system.cpu05.num_fp_alu_accesses                    0                       # Number of float alu accesses
system.cpu05.num_fp_insts                           0                       # number of float instructions
system.cpu05.num_fp_register_reads                  0                       # number of times the floating registers were read
system.cpu05.num_fp_register_writes                 0                       # number of times the floating registers were written
system.cpu05.num_func_calls                         0                       # number of times a function call or return occured
system.cpu05.num_idle_cycles                        0                       # Number of idle cycles
system.cpu05.num_int_alu_accesses                   0                       # Number of integer alu accesses
system.cpu05.num_int_insts                          0                       # number of integer instructions
system.cpu05.num_int_register_reads                 0                       # number of times the integer registers were read
system.cpu05.num_int_register_writes                0                       # number of times the integer registers were written
system.cpu05.num_load_insts                         0                       # Number of load instructions
system.cpu05.num_mem_refs                           0                       # number of memory refs
system.cpu05.num_store_insts                        0                       # Number of store instructions
system.cpu05.num_vec_alu_accesses                   0                       # Number of vector alu accesses
system.cpu05.num_vec_insts                          0                       # number of vector instructions
system.cpu05.num_vec_register_reads                 0                       # number of times the vector registers were read
system.cpu05.num_vec_register_writes                0                       # number of times the vector registers were written
system.cpu05.op_class::No_OpClass                   0                       # Class of executed instruction
system.cpu05.op_class::IntAlu                       0                       # Class of executed instruction
system.cpu05.op_class::IntMult                      0                       # Class of executed instruction
system.cpu05.op_class::IntDiv                       0                       # Class of executed instruction
system.cpu05.op_class::FloatAdd                     0                       # Class of executed instruction
system.cpu05.op_class::FloatCmp                     0                       # Class of executed instruction
system.cpu05.op_class::FloatCvt                     0                       # Class of executed instruction
system.cpu05.op_class::FloatMult                    0                       # Class of executed instruction
system.cpu05.op_class::FloatMultAcc                 0                       # Class of executed instruction
system.cpu05.op_class::FloatDiv                     0                       # Class of executed instruction
system.cpu05.op_class::FloatMisc                    0                       # Class of executed instruction
system.cpu05.op_class::FloatSqrt                    0                       # Class of executed instruction
system.cpu05.op_class::SimdAdd                      0                       # Class of executed instruction
system.cpu05.op_class::SimdAddAcc                   0                       # Class of executed instruction
system.cpu05.op_class::SimdAlu                      0                       # Class of executed instruction
system.cpu05.op_class::SimdCmp                      0                       # Class of executed instruction
system.cpu05.op_class::SimdCvt                      0                       # Class of executed instruction
system.cpu05.op_class::SimdMisc                     0                       # Class of executed instruction
system.cpu05.op_class::SimdMult                     0                       # Class of executed instruction
system.cpu05.op_class::SimdMultAcc                  0                       # Class of executed instruction
system.cpu05.op_class::SimdShift                    0                       # Class of executed instruction
system.cpu05.op_class::SimdShiftAcc                 0                       # Class of executed instruction
system.cpu05.op_class::SimdSqrt                     0                       # Class of executed instruction
system.cpu05.op_class::SimdFloatAdd                 0                       # Class of executed instruction
system.cpu05.op_class::SimdFloatAlu                 0                       # Class of executed instruction
system.cpu05.op_class::SimdFloatCmp                 0                       # Class of executed instruction
system.cpu05.op_class::SimdFloatCvt                 0                       # Class of executed instruction
system.cpu05.op_class::SimdFloatDiv                 0                       # Class of executed instruction
system.cpu05.op_class::SimdFloatMisc                0                       # Class of executed instruction
system.cpu05.op_class::SimdFloatMult                0                       # Class of executed instruction
system.cpu05.op_class::SimdFloatMultAcc             0                       # Class of executed instruction
system.cpu05.op_class::SimdFloatSqrt                0                       # Class of executed instruction
system.cpu05.op_class::SimdAes                      0                       # Class of executed instruction
system.cpu05.op_class::SimdAesMix                   0                       # Class of executed instruction
system.cpu05.op_class::SimdSha1Hash                 0                       # Class of executed instruction
system.cpu05.op_class::SimdSha1Hash2                0                       # Class of executed instruction
system.cpu05.op_class::SimdSha256Hash               0                       # Class of executed instruction
system.cpu05.op_class::SimdSha256Hash2              0                       # Class of executed instruction
system.cpu05.op_class::SimdShaSigma2                0                       # Class of executed instruction
system.cpu05.op_class::SimdShaSigma3                0                       # Class of executed instruction
system.cpu05.op_class::MemRead                      0                       # Class of executed instruction
system.cpu05.op_class::MemWrite                     0                       # Class of executed instruction
system.cpu05.op_class::FloatMemRead                 0                       # Class of executed instruction
system.cpu05.op_class::FloatMemWrite                0                       # Class of executed instruction
system.cpu05.op_class::IprAccess                    0                       # Class of executed instruction
system.cpu05.op_class::InstPrefetch                 0                       # Class of executed instruction
system.cpu05.op_class::total                        0                       # Class of executed instruction
system.cpu05.pwrStateResidencyTicks::ON  2550705971150                       # Cumulative time (in ticks) in various power states
system.cpu06.apic_clk_domain.clock              26720                       # Clock period in ticks
system.cpu06.committedInsts                         0                       # Number of instructions committed
system.cpu06.committedOps                           0                       # Number of ops (including micro ops) committed
system.cpu06.dtb.pwrStateResidencyTicks::UNDEFINED 2550705971150                       # Cumulative time (in ticks) in various power states
system.cpu06.dtb.rdAccesses                         0                       # TLB accesses on read requests
system.cpu06.dtb.rdMisses                           0                       # TLB misses on read requests
system.cpu06.dtb.walker.pwrStateResidencyTicks::UNDEFINED 2550705971150                       # Cumulative time (in ticks) in various power states
system.cpu06.dtb.wrAccesses                         0                       # TLB accesses on write requests
system.cpu06.dtb.wrMisses                           0                       # TLB misses on write requests
system.cpu06.idle_fraction                          1                       # Percentage of idle cycles
system.cpu06.interrupts.pwrStateResidencyTicks::UNDEFINED 2550705971150                       # Cumulative time (in ticks) in various power states
system.cpu06.itb.pwrStateResidencyTicks::UNDEFINED 2550705971150                       # Cumulative time (in ticks) in various power states
system.cpu06.itb.rdAccesses                         0                       # TLB accesses on read requests
system.cpu06.itb.rdMisses                           0                       # TLB misses on read requests
system.cpu06.itb.walker.pwrStateResidencyTicks::UNDEFINED 2550705971150                       # Cumulative time (in ticks) in various power states
system.cpu06.itb.wrAccesses                         0                       # TLB accesses on write requests
system.cpu06.itb.wrMisses                           0                       # TLB misses on write requests
system.cpu06.not_idle_fraction                      0                       # Percentage of non-idle cycles
system.cpu06.numCycles                              0                       # number of cpu cycles simulated
system.cpu06.numWorkItemsCompleted                  0                       # number of work items this cpu completed
system.cpu06.numWorkItemsStarted                    0                       # number of work items this cpu started
system.cpu06.num_busy_cycles                        0                       # Number of busy cycles
system.cpu06.num_conditional_control_insts            0                       # number of instructions that are conditional controls
system.cpu06.num_fp_alu_accesses                    0                       # Number of float alu accesses
system.cpu06.num_fp_insts                           0                       # number of float instructions
system.cpu06.num_fp_register_reads                  0                       # number of times the floating registers were read
system.cpu06.num_fp_register_writes                 0                       # number of times the floating registers were written
system.cpu06.num_func_calls                         0                       # number of times a function call or return occured
system.cpu06.num_idle_cycles                        0                       # Number of idle cycles
system.cpu06.num_int_alu_accesses                   0                       # Number of integer alu accesses
system.cpu06.num_int_insts                          0                       # number of integer instructions
system.cpu06.num_int_register_reads                 0                       # number of times the integer registers were read
system.cpu06.num_int_register_writes                0                       # number of times the integer registers were written
system.cpu06.num_load_insts                         0                       # Number of load instructions
system.cpu06.num_mem_refs                           0                       # number of memory refs
system.cpu06.num_store_insts                        0                       # Number of store instructions
system.cpu06.num_vec_alu_accesses                   0                       # Number of vector alu accesses
system.cpu06.num_vec_insts                          0                       # number of vector instructions
system.cpu06.num_vec_register_reads                 0                       # number of times the vector registers were read
system.cpu06.num_vec_register_writes                0                       # number of times the vector registers were written
system.cpu06.op_class::No_OpClass                   0                       # Class of executed instruction
system.cpu06.op_class::IntAlu                       0                       # Class of executed instruction
system.cpu06.op_class::IntMult                      0                       # Class of executed instruction
system.cpu06.op_class::IntDiv                       0                       # Class of executed instruction
system.cpu06.op_class::FloatAdd                     0                       # Class of executed instruction
system.cpu06.op_class::FloatCmp                     0                       # Class of executed instruction
system.cpu06.op_class::FloatCvt                     0                       # Class of executed instruction
system.cpu06.op_class::FloatMult                    0                       # Class of executed instruction
system.cpu06.op_class::FloatMultAcc                 0                       # Class of executed instruction
system.cpu06.op_class::FloatDiv                     0                       # Class of executed instruction
system.cpu06.op_class::FloatMisc                    0                       # Class of executed instruction
system.cpu06.op_class::FloatSqrt                    0                       # Class of executed instruction
system.cpu06.op_class::SimdAdd                      0                       # Class of executed instruction
system.cpu06.op_class::SimdAddAcc                   0                       # Class of executed instruction
system.cpu06.op_class::SimdAlu                      0                       # Class of executed instruction
system.cpu06.op_class::SimdCmp                      0                       # Class of executed instruction
system.cpu06.op_class::SimdCvt                      0                       # Class of executed instruction
system.cpu06.op_class::SimdMisc                     0                       # Class of executed instruction
system.cpu06.op_class::SimdMult                     0                       # Class of executed instruction
system.cpu06.op_class::SimdMultAcc                  0                       # Class of executed instruction
system.cpu06.op_class::SimdShift                    0                       # Class of executed instruction
system.cpu06.op_class::SimdShiftAcc                 0                       # Class of executed instruction
system.cpu06.op_class::SimdSqrt                     0                       # Class of executed instruction
system.cpu06.op_class::SimdFloatAdd                 0                       # Class of executed instruction
system.cpu06.op_class::SimdFloatAlu                 0                       # Class of executed instruction
system.cpu06.op_class::SimdFloatCmp                 0                       # Class of executed instruction
system.cpu06.op_class::SimdFloatCvt                 0                       # Class of executed instruction
system.cpu06.op_class::SimdFloatDiv                 0                       # Class of executed instruction
system.cpu06.op_class::SimdFloatMisc                0                       # Class of executed instruction
system.cpu06.op_class::SimdFloatMult                0                       # Class of executed instruction
system.cpu06.op_class::SimdFloatMultAcc             0                       # Class of executed instruction
system.cpu06.op_class::SimdFloatSqrt                0                       # Class of executed instruction
system.cpu06.op_class::SimdAes                      0                       # Class of executed instruction
system.cpu06.op_class::SimdAesMix                   0                       # Class of executed instruction
system.cpu06.op_class::SimdSha1Hash                 0                       # Class of executed instruction
system.cpu06.op_class::SimdSha1Hash2                0                       # Class of executed instruction
system.cpu06.op_class::SimdSha256Hash               0                       # Class of executed instruction
system.cpu06.op_class::SimdSha256Hash2              0                       # Class of executed instruction
system.cpu06.op_class::SimdShaSigma2                0                       # Class of executed instruction
system.cpu06.op_class::SimdShaSigma3                0                       # Class of executed instruction
system.cpu06.op_class::MemRead                      0                       # Class of executed instruction
system.cpu06.op_class::MemWrite                     0                       # Class of executed instruction
system.cpu06.op_class::FloatMemRead                 0                       # Class of executed instruction
system.cpu06.op_class::FloatMemWrite                0                       # Class of executed instruction
system.cpu06.op_class::IprAccess                    0                       # Class of executed instruction
system.cpu06.op_class::InstPrefetch                 0                       # Class of executed instruction
system.cpu06.op_class::total                        0                       # Class of executed instruction
system.cpu06.pwrStateResidencyTicks::ON  2550705971150                       # Cumulative time (in ticks) in various power states
system.cpu07.apic_clk_domain.clock              26720                       # Clock period in ticks
system.cpu07.committedInsts                         0                       # Number of instructions committed
system.cpu07.committedOps                           0                       # Number of ops (including micro ops) committed
system.cpu07.dtb.pwrStateResidencyTicks::UNDEFINED 2550705971150                       # Cumulative time (in ticks) in various power states
system.cpu07.dtb.rdAccesses                         0                       # TLB accesses on read requests
system.cpu07.dtb.rdMisses                           0                       # TLB misses on read requests
system.cpu07.dtb.walker.pwrStateResidencyTicks::UNDEFINED 2550705971150                       # Cumulative time (in ticks) in various power states
system.cpu07.dtb.wrAccesses                         0                       # TLB accesses on write requests
system.cpu07.dtb.wrMisses                           0                       # TLB misses on write requests
system.cpu07.idle_fraction                          1                       # Percentage of idle cycles
system.cpu07.interrupts.pwrStateResidencyTicks::UNDEFINED 2550705971150                       # Cumulative time (in ticks) in various power states
system.cpu07.itb.pwrStateResidencyTicks::UNDEFINED 2550705971150                       # Cumulative time (in ticks) in various power states
system.cpu07.itb.rdAccesses                         0                       # TLB accesses on read requests
system.cpu07.itb.rdMisses                           0                       # TLB misses on read requests
system.cpu07.itb.walker.pwrStateResidencyTicks::UNDEFINED 2550705971150                       # Cumulative time (in ticks) in various power states
system.cpu07.itb.wrAccesses                         0                       # TLB accesses on write requests
system.cpu07.itb.wrMisses                           0                       # TLB misses on write requests
system.cpu07.not_idle_fraction                      0                       # Percentage of non-idle cycles
system.cpu07.numCycles                              0                       # number of cpu cycles simulated
system.cpu07.numWorkItemsCompleted                  0                       # number of work items this cpu completed
system.cpu07.numWorkItemsStarted                    0                       # number of work items this cpu started
system.cpu07.num_busy_cycles                        0                       # Number of busy cycles
system.cpu07.num_conditional_control_insts            0                       # number of instructions that are conditional controls
system.cpu07.num_fp_alu_accesses                    0                       # Number of float alu accesses
system.cpu07.num_fp_insts                           0                       # number of float instructions
system.cpu07.num_fp_register_reads                  0                       # number of times the floating registers were read
system.cpu07.num_fp_register_writes                 0                       # number of times the floating registers were written
system.cpu07.num_func_calls                         0                       # number of times a function call or return occured
system.cpu07.num_idle_cycles                        0                       # Number of idle cycles
system.cpu07.num_int_alu_accesses                   0                       # Number of integer alu accesses
system.cpu07.num_int_insts                          0                       # number of integer instructions
system.cpu07.num_int_register_reads                 0                       # number of times the integer registers were read
system.cpu07.num_int_register_writes                0                       # number of times the integer registers were written
system.cpu07.num_load_insts                         0                       # Number of load instructions
system.cpu07.num_mem_refs                           0                       # number of memory refs
system.cpu07.num_store_insts                        0                       # Number of store instructions
system.cpu07.num_vec_alu_accesses                   0                       # Number of vector alu accesses
system.cpu07.num_vec_insts                          0                       # number of vector instructions
system.cpu07.num_vec_register_reads                 0                       # number of times the vector registers were read
system.cpu07.num_vec_register_writes                0                       # number of times the vector registers were written
system.cpu07.op_class::No_OpClass                   0                       # Class of executed instruction
system.cpu07.op_class::IntAlu                       0                       # Class of executed instruction
system.cpu07.op_class::IntMult                      0                       # Class of executed instruction
system.cpu07.op_class::IntDiv                       0                       # Class of executed instruction
system.cpu07.op_class::FloatAdd                     0                       # Class of executed instruction
system.cpu07.op_class::FloatCmp                     0                       # Class of executed instruction
system.cpu07.op_class::FloatCvt                     0                       # Class of executed instruction
system.cpu07.op_class::FloatMult                    0                       # Class of executed instruction
system.cpu07.op_class::FloatMultAcc                 0                       # Class of executed instruction
system.cpu07.op_class::FloatDiv                     0                       # Class of executed instruction
system.cpu07.op_class::FloatMisc                    0                       # Class of executed instruction
system.cpu07.op_class::FloatSqrt                    0                       # Class of executed instruction
system.cpu07.op_class::SimdAdd                      0                       # Class of executed instruction
system.cpu07.op_class::SimdAddAcc                   0                       # Class of executed instruction
system.cpu07.op_class::SimdAlu                      0                       # Class of executed instruction
system.cpu07.op_class::SimdCmp                      0                       # Class of executed instruction
system.cpu07.op_class::SimdCvt                      0                       # Class of executed instruction
system.cpu07.op_class::SimdMisc                     0                       # Class of executed instruction
system.cpu07.op_class::SimdMult                     0                       # Class of executed instruction
system.cpu07.op_class::SimdMultAcc                  0                       # Class of executed instruction
system.cpu07.op_class::SimdShift                    0                       # Class of executed instruction
system.cpu07.op_class::SimdShiftAcc                 0                       # Class of executed instruction
system.cpu07.op_class::SimdSqrt                     0                       # Class of executed instruction
system.cpu07.op_class::SimdFloatAdd                 0                       # Class of executed instruction
system.cpu07.op_class::SimdFloatAlu                 0                       # Class of executed instruction
system.cpu07.op_class::SimdFloatCmp                 0                       # Class of executed instruction
system.cpu07.op_class::SimdFloatCvt                 0                       # Class of executed instruction
system.cpu07.op_class::SimdFloatDiv                 0                       # Class of executed instruction
system.cpu07.op_class::SimdFloatMisc                0                       # Class of executed instruction
system.cpu07.op_class::SimdFloatMult                0                       # Class of executed instruction
system.cpu07.op_class::SimdFloatMultAcc             0                       # Class of executed instruction
system.cpu07.op_class::SimdFloatSqrt                0                       # Class of executed instruction
system.cpu07.op_class::SimdAes                      0                       # Class of executed instruction
system.cpu07.op_class::SimdAesMix                   0                       # Class of executed instruction
system.cpu07.op_class::SimdSha1Hash                 0                       # Class of executed instruction
system.cpu07.op_class::SimdSha1Hash2                0                       # Class of executed instruction
system.cpu07.op_class::SimdSha256Hash               0                       # Class of executed instruction
system.cpu07.op_class::SimdSha256Hash2              0                       # Class of executed instruction
system.cpu07.op_class::SimdShaSigma2                0                       # Class of executed instruction
system.cpu07.op_class::SimdShaSigma3                0                       # Class of executed instruction
[...]
system.ruby.network.routers10.percent_links_utilized            0                      
system.ruby.network.routers10.pwrStateResidencyTicks::UNDEFINED 2550705971150                       # Cumulative time (in ticks) in various power states
system.ruby.network.routers10.throttle0.link_utilization            0                      
system.ruby.network.routers10.throttle1.link_utilization            0                      
system.ruby.network.routers11.percent_links_utilized            0                      
system.ruby.network.routers11.pwrStateResidencyTicks::UNDEFINED 2550705971150                       # Cumulative time (in ticks) in various power states
system.ruby.network.routers11.throttle0.link_utilization            0                      
system.ruby.network.routers11.throttle1.link_utilization            0                      
system.ruby.network.routers12.percent_links_utilized            0                      
system.ruby.network.routers12.pwrStateResidencyTicks::UNDEFINED 2550705971150                       # Cumulative time (in ticks) in various power states
system.ruby.network.routers12.throttle0.link_utilization            0                      
system.ruby.network.routers12.throttle1.link_utilization            0                      
system.ruby.network.routers13.percent_links_utilized            0                      
system.ruby.network.routers13.pwrStateResidencyTicks::UNDEFINED 2550705971150                       # Cumulative time (in ticks) in various power states
system.ruby.network.routers13.throttle0.link_utilization            0                      
system.ruby.network.routers13.throttle1.link_utilization            0                      
system.ruby.network.routers14.percent_links_utilized            0                      
system.ruby.network.routers14.pwrStateResidencyTicks::UNDEFINED 2550705971150                       # Cumulative time (in ticks) in various power states
system.ruby.network.routers14.throttle0.link_utilization            0                      
system.ruby.network.routers14.throttle1.link_utilization            0                      
system.ruby.network.routers15.percent_links_utilized            0                      
system.ruby.network.routers15.pwrStateResidencyTicks::UNDEFINED 2550705971150                       # Cumulative time (in ticks) in various power states
system.ruby.network.routers15.throttle0.link_utilization            0                      
system.ruby.network.routers15.throttle1.link_utilization            0                      
system.ruby.network.routers16.msg_bytes.Control::0     17384560                      
system.ruby.network.routers16.msg_bytes.Request_Control::2       117368                      
system.ruby.network.routers16.msg_bytes.Response_Control::1     17090960                      
system.ruby.network.routers16.msg_bytes.Response_Control::2      8509344                      
system.ruby.network.routers16.msg_bytes.Response_Data::1    128001440                      
system.ruby.network.routers16.msg_bytes.Writeback_Data::0     42436200                      
system.ruby.network.routers16.msg_bytes.Writeback_Data::1         1200                      
system.ruby.network.routers16.msg_count.Control::0      2173070                      
system.ruby.network.routers16.msg_count.Request_Control::2        14671                      
system.ruby.network.routers16.msg_count.Response_Control::1      2136370                      
system.ruby.network.routers16.msg_count.Response_Control::2      1063668                      
system.ruby.network.routers16.msg_count.Response_Data::1      3200036                      
system.ruby.network.routers16.msg_count.Writeback_Data::0      1060905                      
system.ruby.network.routers16.msg_count.Writeback_Data::1           30                      
system.ruby.network.routers16.percent_links_utilized     0.130810                      
system.ruby.network.routers16.port_buffers00.avg_buf_msgs     0.000423                       # Average number of messages in buffer
system.ruby.network.routers16.port_buffers00.avg_stall_time  7075.426981                       # Average number of cycles messages are stalled in this MB
system.ruby.network.routers16.port_buffers01.avg_buf_msgs     0.000419                       # Average number of messages in buffer
system.ruby.network.routers16.port_buffers01.avg_stall_time  3000.130881                       # Average number of cycles messages are stalled in this MB
system.ruby.network.routers16.port_buffers02.avg_buf_msgs     0.000209                       # Average number of messages in buffer
system.ruby.network.routers16.port_buffers02.avg_stall_time  4412.970426                       # Average number of cycles messages are stalled in this MB
system.ruby.network.routers16.port_buffers03.avg_buf_msgs     0.000610                       # Average number of messages in buffer
system.ruby.network.routers16.port_buffers03.avg_stall_time  2455.407209                       # Average number of cycles messages are stalled in this MB
system.ruby.network.routers16.port_buffers04.avg_buf_msgs     0.000628                       # Average number of messages in buffer
system.ruby.network.routers16.port_buffers04.avg_stall_time  1027.429840                       # Average number of cycles messages are stalled in this MB
system.ruby.network.routers16.port_buffers05.avg_buf_msgs     0.000003                       # Average number of messages in buffer
system.ruby.network.routers16.port_buffers05.avg_stall_time   998.314583                       # Average number of cycles messages are stalled in this MB
system.ruby.network.routers16.pwrStateResidencyTicks::UNDEFINED 2550705971150                       # Cumulative time (in ticks) in various power states
system.ruby.network.routers16.throttle0.link_utilization     0.136301                      
system.ruby.network.routers16.throttle0.msg_bytes.Control::0      8771256                      
system.ruby.network.routers16.throttle0.msg_bytes.Response_Control::1      8468288                      
system.ruby.network.routers16.throttle0.msg_bytes.Response_Control::2      8509344                      
system.ruby.network.routers16.throttle0.msg_bytes.Response_Data::1     43066520                      
system.ruby.network.routers16.throttle0.msg_bytes.Writeback_Data::0     42436200                      
system.ruby.network.routers16.throttle0.msg_bytes.Writeback_Data::1         1200                      
system.ruby.network.routers16.throttle0.msg_count.Control::0      1096407                      
system.ruby.network.routers16.throttle0.msg_count.Response_Control::1      1058536                      
system.ruby.network.routers16.throttle0.msg_count.Response_Control::2      1063668                      
system.ruby.network.routers16.throttle0.msg_count.Response_Data::1      1076663                      
system.ruby.network.routers16.throttle0.msg_count.Writeback_Data::0      1060905                      
system.ruby.network.routers16.throttle0.msg_count.Writeback_Data::1           30                      
system.ruby.network.routers16.throttle1.link_utilization     0.125319                      
system.ruby.network.routers16.throttle1.msg_bytes.Control::0      8613304                      
system.ruby.network.routers16.throttle1.msg_bytes.Request_Control::2       117368                      
system.ruby.network.routers16.throttle1.msg_bytes.Response_Control::1      8622672                      
system.ruby.network.routers16.throttle1.msg_bytes.Response_Data::1     84934920                      
system.ruby.network.routers16.throttle1.msg_count.Control::0      1076663                      
system.ruby.network.routers16.throttle1.msg_count.Request_Control::2        14671                      
system.ruby.network.routers16.throttle1.msg_count.Response_Control::1      1077834                      
system.ruby.network.routers16.throttle1.msg_count.Response_Data::1      2123373                      
system.ruby.network.routers17.msg_bytes.Control::0      8613304                      
system.ruby.network.routers17.msg_bytes.Response_Control::1      8467680                      
system.ruby.network.routers17.msg_bytes.Response_Data::1     84239720                      
system.ruby.network.routers17.msg_count.Control::0      1076663                      
system.ruby.network.routers17.msg_count.Response_Control::1      1058460                      
system.ruby.network.routers17.msg_count.Response_Data::1      2105993                      
system.ruby.network.routers17.percent_links_utilized     0.062067                      
system.ruby.network.routers17.port_buffers00.avg_buf_msgs     0.000211                       # Average number of messages in buffer
system.ruby.network.routers17.port_buffers00.avg_stall_time  4466.577060                       # Average number of cycles messages are stalled in this MB
system.ruby.network.routers17.port_buffers01.avg_buf_msgs     0.000205                       # Average number of messages in buffer
system.ruby.network.routers17.port_buffers01.avg_stall_time  3494.101023                       # Average number of cycles messages are stalled in this MB
system.ruby.network.routers17.port_buffers03.avg_buf_msgs     0.000416                       # Average number of messages in buffer
system.ruby.network.routers17.port_buffers03.avg_stall_time  1000.000192                       # Average number of cycles messages are stalled in this MB
system.ruby.network.routers17.pwrStateResidencyTicks::UNDEFINED 2550705971150                       # Cumulative time (in ticks) in various power states
system.ruby.network.routers17.throttle0.link_utilization     0.061139                      
system.ruby.network.routers17.throttle0.msg_bytes.Control::0      8613304                      
system.ruby.network.routers17.throttle0.msg_bytes.Response_Control::1       116520                      
system.ruby.network.routers17.throttle0.msg_bytes.Response_Data::1     41173200                      
system.ruby.network.routers17.throttle0.msg_count.Control::0      1076663                      
system.ruby.network.routers17.throttle0.msg_count.Response_Control::1        14565                      
system.ruby.network.routers17.throttle0.msg_count.Response_Data::1      1029330                      
system.ruby.network.routers17.throttle1.link_utilization     0.062994                      
system.ruby.network.routers17.throttle1.msg_bytes.Response_Control::1      8351160                      
system.ruby.network.routers17.throttle1.msg_bytes.Response_Data::1     43066520                      
system.ruby.network.routers17.throttle1.msg_count.Response_Control::1      1043895                      
system.ruby.network.routers17.throttle1.msg_count.Response_Data::1      1076663                      
system.ruby.network.routers18.msg_bytes.Control::0     17384560                      
system.ruby.network.routers18.msg_bytes.Request_Control::2       117368                      
system.ruby.network.routers18.msg_bytes.Response_Control::1     17090960                      
system.ruby.network.routers18.msg_bytes.Response_Control::2      8509344                      
system.ruby.network.routers18.msg_bytes.Response_Data::1    128001440                      
system.ruby.network.routers18.msg_bytes.Writeback_Data::0     42436200                      
system.ruby.network.routers18.msg_bytes.Writeback_Data::1         1200                      
system.ruby.network.routers18.msg_count.Control::0      2173070                      
system.ruby.network.routers18.msg_count.Request_Control::2        14671                      
system.ruby.network.routers18.msg_count.Response_Control::1      2136370                      
system.ruby.network.routers18.msg_count.Response_Control::2      1063668                      
system.ruby.network.routers18.msg_count.Response_Data::1      3200036                      
system.ruby.network.routers18.msg_count.Writeback_Data::0      1060905                      
system.ruby.network.routers18.msg_count.Writeback_Data::1           30                      
system.ruby.network.routers18.percent_links_utilized     0.014534                      
system.ruby.network.routers18.port_buffers001.avg_buf_msgs     0.000423                       # Average number of messages in buffer
system.ruby.network.routers18.port_buffers001.avg_stall_time  2005.224471                       # Average number of cycles messages are stalled in this MB
system.ruby.network.routers18.port_buffers002.avg_buf_msgs     0.000003                       # Average number of messages in buffer
system.ruby.network.routers18.port_buffers002.avg_stall_time  1996.629166                       # Average number of cycles messages are stalled in this MB
system.ruby.network.routers18.port_buffers048.avg_buf_msgs     0.000423                       # Average number of messages in buffer
system.ruby.network.routers18.port_buffers048.avg_stall_time  6075.426986                       # Average number of cycles messages are stalled in this MB
system.ruby.network.routers18.port_buffers049.avg_buf_msgs     0.000419                       # Average number of messages in buffer
system.ruby.network.routers18.port_buffers049.avg_stall_time  2000.130909                       # Average number of cycles messages are stalled in this MB
system.ruby.network.routers18.port_buffers050.avg_buf_msgs     0.000209                       # Average number of messages in buffer
system.ruby.network.routers18.port_buffers050.avg_stall_time  3412.970522                       # Average number of cycles messages are stalled in this MB
system.ruby.network.routers18.port_buffers051.avg_buf_msgs     0.000216                       # Average number of messages in buffer
system.ruby.network.routers18.port_buffers051.avg_stall_time  3466.577066                       # Average number of cycles messages are stalled in this MB
system.ruby.network.routers18.port_buffers052.avg_buf_msgs     0.000205                       # Average number of messages in buffer
system.ruby.network.routers18.port_buffers052.avg_stall_time  2495.786446                       # Average number of cycles messages are stalled in this MB
system.ruby.network.routers18.pwrStateResidencyTicks::UNDEFINED 2550705971150                       # Cumulative time (in ticks) in various power states
system.ruby.network.routers18.throttle0.link_utilization     0.064180                      
system.ruby.network.routers18.throttle0.msg_bytes.Request_Control::2       117368                      
system.ruby.network.routers18.throttle0.msg_bytes.Response_Control::1      8506152                      
system.ruby.network.routers18.throttle0.msg_bytes.Response_Data::1     43761720                      
system.ruby.network.routers18.throttle0.msg_count.Request_Control::2        14671                      
system.ruby.network.routers18.throttle0.msg_count.Response_Control::1      1063269                      
system.ruby.network.routers18.throttle0.msg_count.Response_Data::1      1094043                      
system.ruby.network.routers18.throttle1.link_utilization            0                      
system.ruby.network.routers18.throttle10.link_utilization            0                      
system.ruby.network.routers18.throttle11.link_utilization            0                      
system.ruby.network.routers18.throttle12.link_utilization            0                      
system.ruby.network.routers18.throttle13.link_utilization            0                      
system.ruby.network.routers18.throttle14.link_utilization            0                      
system.ruby.network.routers18.throttle15.link_utilization            0                      
system.ruby.network.routers18.throttle16.link_utilization     0.136301                      
system.ruby.network.routers18.throttle16.msg_bytes.Control::0      8771256                      
system.ruby.network.routers18.throttle16.msg_bytes.Response_Control::1      8468288                      
system.ruby.network.routers18.throttle16.msg_bytes.Response_Control::2      8509344                      
system.ruby.network.routers18.throttle16.msg_bytes.Response_Data::1     43066520                      
system.ruby.network.routers18.throttle16.msg_bytes.Writeback_Data::0     42436200                      
system.ruby.network.routers18.throttle16.msg_bytes.Writeback_Data::1         1200                      
system.ruby.network.routers18.throttle16.msg_count.Control::0      1096407                      
system.ruby.network.routers18.throttle16.msg_count.Response_Control::1      1058536                      
system.ruby.network.routers18.throttle16.msg_count.Response_Control::2      1063668                      
system.ruby.network.routers18.throttle16.msg_count.Response_Data::1      1076663                      
system.ruby.network.routers18.throttle16.msg_count.Writeback_Data::0      1060905                      
system.ruby.network.routers18.throttle16.msg_count.Writeback_Data::1           30                      
system.ruby.network.routers18.throttle17.link_utilization     0.061139                      
system.ruby.network.routers18.throttle17.msg_bytes.Control::0      8613304                      
system.ruby.network.routers18.throttle17.msg_bytes.Response_Control::1       116520                      
system.ruby.network.routers18.throttle17.msg_bytes.Response_Data::1     41173200                      
system.ruby.network.routers18.throttle17.msg_count.Control::0      1076663                      
system.ruby.network.routers18.throttle17.msg_count.Response_Control::1        14565                      
system.ruby.network.routers18.throttle17.msg_count.Response_Data::1      1029330                      
system.ruby.network.routers18.throttle2.link_utilization            0                      
system.ruby.network.routers18.throttle3.link_utilization            0                      
system.ruby.network.routers18.throttle4.link_utilization            0                      
system.ruby.network.routers18.throttle5.link_utilization            0                      
system.ruby.network.routers18.throttle6.link_utilization            0                      
system.ruby.network.routers18.throttle7.link_utilization            0                      
system.ruby.network.routers18.throttle8.link_utilization            0                      
system.ruby.network.routers18.throttle9.link_utilization            0                      
system.ruby.outstanding_req_hist_seqr::bucket_size            1                      
system.ruby.outstanding_req_hist_seqr::max_bucket            9                      
system.ruby.outstanding_req_hist_seqr::samples    725126028                      
system.ruby.outstanding_req_hist_seqr::mean     1.000000                      
system.ruby.outstanding_req_hist_seqr::gmean     1.000000                      
system.ruby.outstanding_req_hist_seqr::stdev     0.000037                      
system.ruby.outstanding_req_hist_seqr    |           0      0.00%      0.00% |   725126027    100.00%    100.00% |           1      0.00%    100.00% |           0      0.00%    100.00% |           0      0.00%    100.00% |           0      0.00%    100.00% |           0      0.00%    100.00% |           0      0.00%    100.00% |           0      0.00%    100.00% |           0      0.00%    100.00%
system.ruby.outstanding_req_hist_seqr::total    725126028                      
system.ruby.pwrStateResidencyTicks::UNDEFINED 2550705971150                       # Cumulative time (in ticks) in various power states
system.sys_port_proxy.pwrStateResidencyTicks::UNDEFINED 2550705971150                       # Cumulative time (in ticks) in various power states
system.voltage_domain.voltage                       1                       # Voltage in Volts

---------- End Simulation Statistics   ----------
