
---------- Begin Simulation Statistics ----------
final_tick                                   75063941                       # Number of ticks from beginning of simulation (restored from checkpoints and never reset)
host_mem_usage                                 892272                       # Number of bytes of host memory used
host_seconds                                   194.33                       # Real time elapsed on the host
host_tick_rate                                 386268                       # Simulator tick rate (ticks/s)
sim_freq                                   1000000000                       # Frequency of simulated ticks
sim_seconds                                  0.075064                       # Number of seconds simulated
sim_ticks                                    75063941                       # Number of ticks simulated
system.clk_domain.clock                             1                       # Clock period in ticks
system.cpu.pwrStateResidencyTicks::UNDEFINED     75063941                       # Cumulative time (in ticks) in various power states
system.mem_ctrls.avgBusLat                       5.00                       # Average bus latency per DRAM burst
system.mem_ctrls.avgGap                         80.25                       # Average gap between requests
system.mem_ctrls.avgMemAccLat                   28.92                       # Average memory access latency per DRAM burst
system.mem_ctrls.avgPriority_.ruby.dir_cntrl0::samples       102.00                       # Average QoS priority value for accepted requests
system.mem_ctrls.avgQLat                         9.92                       # Average queueing delay per DRAM burst
system.mem_ctrls.avgRdBW                         0.09                       # Average DRAM read bandwidth in MiByte/s
system.mem_ctrls.avgRdBWSys                      0.09                       # Average system read bandwidth in MiByte/s
system.mem_ctrls.avgRdQLen                       1.00                       # Average read queue length when enqueuing
system.mem_ctrls.avgWrBW                         0.00                       # Average achieved write bandwidth in MiByte/s
system.mem_ctrls.avgWrBWSys                      0.00                       # Average system write bandwidth in MiByte/s
system.mem_ctrls.avgWrQLen                       0.00                       # Average write queue length when enqueuing
system.mem_ctrls.busUtil                         0.00                       # Data bus utilization in percentage
system.mem_ctrls.busUtilRead                     0.00                       # Data bus utilization in percentage for reads
system.mem_ctrls.busUtilWrite                    0.00                       # Data bus utilization in percentage for writes
system.mem_ctrls.bw_read::.ruby.dir_cntrl0        86966                       # Total read bandwidth from this memory (bytes/s)
system.mem_ctrls.bw_read::total                 86966                       # Total read bandwidth from this memory (bytes/s)
system.mem_ctrls.bw_total::.ruby.dir_cntrl0        86966                       # Total bandwidth to/from this memory (bytes/s)
system.mem_ctrls.bw_total::total                86966                       # Total bandwidth to/from this memory (bytes/s)
system.mem_ctrls.bytesPerActivate::samples            8                       # Bytes accessed per row activation
system.mem_ctrls.bytesPerActivate::mean           816                       # Bytes accessed per row activation
system.mem_ctrls.bytesPerActivate::gmean   642.539802                       # Bytes accessed per row activation
system.mem_ctrls.bytesPerActivate::stdev   361.634385                       # Bytes accessed per row activation
system.mem_ctrls.bytesPerActivate::0-127            1     12.50%     12.50% # Bytes accessed per row activation
system.mem_ctrls.bytesPerActivate::384-511            1     12.50%     25.00% # Bytes accessed per row activation
system.mem_ctrls.bytesPerActivate::896-1023            2     25.00%     50.00% # Bytes accessed per row activation
system.mem_ctrls.bytesPerActivate::1024-1151            4     50.00%    100.00% # Bytes accessed per row activation
system.mem_ctrls.bytesPerActivate::total            8                       # Bytes accessed per row activation
system.mem_ctrls.bytesReadDRAM                   6528                       # Total number of bytes read from DRAM
system.mem_ctrls.bytesReadSys                    6528                       # Total read bytes from the system interface side
system.mem_ctrls.bytesReadWrQ                       0                       # Total number of bytes read from write queue
system.mem_ctrls.bytesWritten                       0                       # Total number of bytes written to DRAM
system.mem_ctrls.bytesWrittenSys                    0                       # Total written bytes from the system interface side
system.mem_ctrls.bytes_read::.ruby.dir_cntrl0         6528                       # Number of bytes read from this memory
system.mem_ctrls.bytes_read::total               6528                       # Number of bytes read from this memory
system.mem_ctrls.masterReadAccesses::.ruby.dir_cntrl0          102                       # Per-master read serviced memory accesses
system.mem_ctrls.masterReadAvgLat::.ruby.dir_cntrl0        28.92                       # Per-master read average memory access latency
system.mem_ctrls.masterReadBytes::.ruby.dir_cntrl0         6528                       # Per-master bytes read from memory
system.mem_ctrls.masterReadRate::.ruby.dir_cntrl0 86965.857548033615                       # Per-master bytes read from memory rate (Bytes/sec)
system.mem_ctrls.masterReadTotalLat::.ruby.dir_cntrl0         2950                       # Per-master read total memory access latency
system.mem_ctrls.mergedWrBursts                     0                       # Number of DRAM write bursts merged with an existing one
system.mem_ctrls.neitherReadNorWriteReqs            0                       # Number of requests that are neither read nor write
system.mem_ctrls.numRdRetry                         0                       # Number of times read queue was full causing retry
system.mem_ctrls.numReadWriteTurnArounds            0                       # Number of turnarounds from READ to WRITE
system.mem_ctrls.numStayReadState                 207                       # Number of times bus staying in READ state
system.mem_ctrls.numStayWriteState                  0                       # Number of times bus staying in WRITE state
system.mem_ctrls.numWrRetry                         0                       # Number of times write queue was full causing retry
system.mem_ctrls.numWriteReadTurnArounds            0                       # Number of turnarounds from WRITE to READ
system.mem_ctrls.num_reads::.ruby.dir_cntrl0          102                       # Number of read requests responded to by this memory
system.mem_ctrls.num_reads::total                 102                       # Number of read requests responded to by this memory
system.mem_ctrls.pageHitRate                    92.16                       # Row buffer hit rate, read and write combined
system.mem_ctrls.peakBW                      12800.00                       # Theoretical peak bandwidth in MiByte/s
system.mem_ctrls.perBankRdBursts::0                31                       # Per bank write bursts
system.mem_ctrls.perBankRdBursts::1                32                       # Per bank write bursts
system.mem_ctrls.perBankRdBursts::2                32                       # Per bank write bursts
system.mem_ctrls.perBankRdBursts::3                 7                       # Per bank write bursts
system.mem_ctrls.perBankRdBursts::4                 0                       # Per bank write bursts
system.mem_ctrls.perBankRdBursts::5                 0                       # Per bank write bursts
system.mem_ctrls.perBankRdBursts::6                 0                       # Per bank write bursts
system.mem_ctrls.perBankRdBursts::7                 0                       # Per bank write bursts
system.mem_ctrls.perBankRdBursts::8                 0                       # Per bank write bursts
system.mem_ctrls.perBankRdBursts::9                 0                       # Per bank write bursts
system.mem_ctrls.perBankRdBursts::10                0                       # Per bank write bursts
system.mem_ctrls.perBankRdBursts::11                0                       # Per bank write bursts
system.mem_ctrls.perBankRdBursts::12                0                       # Per bank write bursts
system.mem_ctrls.perBankRdBursts::13                0                       # Per bank write bursts
system.mem_ctrls.perBankRdBursts::14                0                       # Per bank write bursts
system.mem_ctrls.perBankRdBursts::15                0                       # Per bank write bursts
system.mem_ctrls.perBankWrBursts::0                 0                       # Per bank write bursts
system.mem_ctrls.perBankWrBursts::1                 0                       # Per bank write bursts
system.mem_ctrls.perBankWrBursts::2                 0                       # Per bank write bursts
system.mem_ctrls.perBankWrBursts::3                 0                       # Per bank write bursts
system.mem_ctrls.perBankWrBursts::4                 0                       # Per bank write bursts
system.mem_ctrls.perBankWrBursts::5                 0                       # Per bank write bursts
system.mem_ctrls.perBankWrBursts::6                 0                       # Per bank write bursts
system.mem_ctrls.perBankWrBursts::7                 0                       # Per bank write bursts
system.mem_ctrls.perBankWrBursts::8                 0                       # Per bank write bursts
system.mem_ctrls.perBankWrBursts::9                 0                       # Per bank write bursts
system.mem_ctrls.perBankWrBursts::10                0                       # Per bank write bursts
system.mem_ctrls.perBankWrBursts::11                0                       # Per bank write bursts
system.mem_ctrls.perBankWrBursts::12                0                       # Per bank write bursts
system.mem_ctrls.perBankWrBursts::13                0                       # Per bank write bursts
system.mem_ctrls.perBankWrBursts::14                0                       # Per bank write bursts
system.mem_ctrls.perBankWrBursts::15                0                       # Per bank write bursts
system.mem_ctrls.priorityMaxLatency      0.000000063000                       # per QoS priority maximum request to response latency (s)
system.mem_ctrls.priorityMinLatency      0.000000019000                       # per QoS priority minimum request to response latency (s)
system.mem_ctrls.pwrStateResidencyTicks::UNDEFINED     75063941                       # Cumulative time (in ticks) in various power states
system.mem_ctrls.rdQLenPdf::0                      39                       # What read queue length does an incoming req see
system.mem_ctrls.rdQLenPdf::1                      20                       # What read queue length does an incoming req see
system.mem_ctrls.rdQLenPdf::2                      12                       # What read queue length does an incoming req see
system.mem_ctrls.rdQLenPdf::3                      10                       # What read queue length does an incoming req see
system.mem_ctrls.rdQLenPdf::4                       8                       # What read queue length does an incoming req see
system.mem_ctrls.rdQLenPdf::5                       4                       # What read queue length does an incoming req see
system.mem_ctrls.rdQLenPdf::6                       3                       # What read queue length does an incoming req see
system.mem_ctrls.rdQLenPdf::7                       3                       # What read queue length does an incoming req see
system.mem_ctrls.rdQLenPdf::8                       3                       # What read queue length does an incoming req see
system.mem_ctrls.rdQLenPdf::9                       0                       # What read queue length does an incoming req see
system.mem_ctrls.rdQLenPdf::10                      0                       # What read queue length does an incoming req see
system.mem_ctrls.rdQLenPdf::11                      0                       # What read queue length does an incoming req see
system.mem_ctrls.rdQLenPdf::12                      0                       # What read queue length does an incoming req see
system.mem_ctrls.rdQLenPdf::13                      0                       # What read queue length does an incoming req see
system.mem_ctrls.rdQLenPdf::14                      0                       # What read queue length does an incoming req see
system.mem_ctrls.rdQLenPdf::15                      0                       # What read queue length does an incoming req see
system.mem_ctrls.rdQLenPdf::16                      0                       # What read queue length does an incoming req see
system.mem_ctrls.rdQLenPdf::17                      0                       # What read queue length does an incoming req see
system.mem_ctrls.rdQLenPdf::18                      0                       # What read queue length does an incoming req see
system.mem_ctrls.rdQLenPdf::19                      0                       # What read queue length does an incoming req see
system.mem_ctrls.rdQLenPdf::20                      0                       # What read queue length does an incoming req see
system.mem_ctrls.rdQLenPdf::21                      0                       # What read queue length does an incoming req see
system.mem_ctrls.rdQLenPdf::22                      0                       # What read queue length does an incoming req see
system.mem_ctrls.rdQLenPdf::23                      0                       # What read queue length does an incoming req see
system.mem_ctrls.rdQLenPdf::24                      0                       # What read queue length does an incoming req see
system.mem_ctrls.rdQLenPdf::25                      0                       # What read queue length does an incoming req see
system.mem_ctrls.rdQLenPdf::26                      0                       # What read queue length does an incoming req see
system.mem_ctrls.rdQLenPdf::27                      0                       # What read queue length does an incoming req see
system.mem_ctrls.rdQLenPdf::28                      0                       # What read queue length does an incoming req see
system.mem_ctrls.rdQLenPdf::29                      0                       # What read queue length does an incoming req see
system.mem_ctrls.rdQLenPdf::30                      0                       # What read queue length does an incoming req see
system.mem_ctrls.rdQLenPdf::31                      0                       # What read queue length does an incoming req see
system.mem_ctrls.readBursts                       102                       # Number of DRAM read bursts, including those serviced by the write queue
system.mem_ctrls.readPktSize::0                     0                       # Read request sizes (log2)
system.mem_ctrls.readPktSize::1                     0                       # Read request sizes (log2)
system.mem_ctrls.readPktSize::2                     0                       # Read request sizes (log2)
system.mem_ctrls.readPktSize::3                     0                       # Read request sizes (log2)
system.mem_ctrls.readPktSize::4                     0                       # Read request sizes (log2)
system.mem_ctrls.readPktSize::5                     0                       # Read request sizes (log2)
system.mem_ctrls.readPktSize::6                   102                       # Read request sizes (log2)
system.mem_ctrls.readReqs                         102                       # Number of read requests accepted
system.mem_ctrls.readRowHitRate                 92.16                       # Row buffer hit rate for reads
system.mem_ctrls.readRowHits                       94                       # Number of row buffer hits during reads
system.mem_ctrls.servicedByWrQ                      0                       # Number of DRAM read bursts serviced by the write queue
system.mem_ctrls.totBusLat                        510                       # Total ticks spent in databus transfers
system.mem_ctrls.totGap                          8185                       # Total gap between requests
system.mem_ctrls.totMemAccLat                    2950                       # Total ticks spent from burst creation until serviced by the DRAM
system.mem_ctrls.totQLat                         1012                       # Total ticks spent queuing
system.mem_ctrls.wrQLenPdf::0                       0                       # What write queue length does an incoming req see
system.mem_ctrls.wrQLenPdf::1                       0                       # What write queue length does an incoming req see
system.mem_ctrls.wrQLenPdf::2                       0                       # What write queue length does an incoming req see
system.mem_ctrls.wrQLenPdf::3                       0                       # What write queue length does an incoming req see
system.mem_ctrls.wrQLenPdf::4                       0                       # What write queue length does an incoming req see
system.mem_ctrls.wrQLenPdf::5                       0                       # What write queue length does an incoming req see
system.mem_ctrls.wrQLenPdf::6                       0                       # What write queue length does an incoming req see
system.mem_ctrls.wrQLenPdf::7                       0                       # What write queue length does an incoming req see
system.mem_ctrls.wrQLenPdf::8                       0                       # What write queue length does an incoming req see
system.mem_ctrls.wrQLenPdf::9                       0                       # What write queue length does an incoming req see
system.mem_ctrls.wrQLenPdf::10                      0                       # What write queue length does an incoming req see
system.mem_ctrls.wrQLenPdf::11                      0                       # What write queue length does an incoming req see
system.mem_ctrls.wrQLenPdf::12                      0                       # What write queue length does an incoming req see
system.mem_ctrls.wrQLenPdf::13                      0                       # What write queue length does an incoming req see
system.mem_ctrls.wrQLenPdf::14                      0                       # What write queue length does an incoming req see
system.mem_ctrls.wrQLenPdf::15                      0                       # What write queue length does an incoming req see
system.mem_ctrls.wrQLenPdf::16                      0                       # What write queue length does an incoming req see
system.mem_ctrls.wrQLenPdf::17                      0                       # What write queue length does an incoming req see
system.mem_ctrls.wrQLenPdf::18                      0                       # What write queue length does an incoming req see
system.mem_ctrls.wrQLenPdf::19                      0                       # What write queue length does an incoming req see
system.mem_ctrls.wrQLenPdf::20                      0                       # What write queue length does an incoming req see
system.mem_ctrls.wrQLenPdf::21                      0                       # What write queue length does an incoming req see
system.mem_ctrls.wrQLenPdf::22                      0                       # What write queue length does an incoming req see
system.mem_ctrls.wrQLenPdf::23                      0                       # What write queue length does an incoming req see
system.mem_ctrls.wrQLenPdf::24                      0                       # What write queue length does an incoming req see
system.mem_ctrls.wrQLenPdf::25                      0                       # What write queue length does an incoming req see
system.mem_ctrls.wrQLenPdf::26                      0                       # What write queue length does an incoming req see
system.mem_ctrls.wrQLenPdf::27                      0                       # What write queue length does an incoming req see
system.mem_ctrls.wrQLenPdf::28                      0                       # What write queue length does an incoming req see
system.mem_ctrls.wrQLenPdf::29                      0                       # What write queue length does an incoming req see
system.mem_ctrls.wrQLenPdf::30                      0                       # What write queue length does an incoming req see
system.mem_ctrls.wrQLenPdf::31                      0                       # What write queue length does an incoming req see
system.mem_ctrls.wrQLenPdf::32                      0                       # What write queue length does an incoming req see
system.mem_ctrls.wrQLenPdf::33                      0                       # What write queue length does an incoming req see
system.mem_ctrls.wrQLenPdf::34                      0                       # What write queue length does an incoming req see
system.mem_ctrls.wrQLenPdf::35                      0                       # What write queue length does an incoming req see
system.mem_ctrls.wrQLenPdf::36                      0                       # What write queue length does an incoming req see
system.mem_ctrls.wrQLenPdf::37                      0                       # What write queue length does an incoming req see
system.mem_ctrls.wrQLenPdf::38                      0                       # What write queue length does an incoming req see
system.mem_ctrls.wrQLenPdf::39                      0                       # What write queue length does an incoming req see
system.mem_ctrls.wrQLenPdf::40                      0                       # What write queue length does an incoming req see
system.mem_ctrls.wrQLenPdf::41                      0                       # What write queue length does an incoming req see
system.mem_ctrls.wrQLenPdf::42                      0                       # What write queue length does an incoming req see
system.mem_ctrls.wrQLenPdf::43                      0                       # What write queue length does an incoming req see
system.mem_ctrls.wrQLenPdf::44                      0                       # What write queue length does an incoming req see
system.mem_ctrls.wrQLenPdf::45                      0                       # What write queue length does an incoming req see
system.mem_ctrls.wrQLenPdf::46                      0                       # What write queue length does an incoming req see
system.mem_ctrls.wrQLenPdf::47                      0                       # What write queue length does an incoming req see
system.mem_ctrls.wrQLenPdf::48                      0                       # What write queue length does an incoming req see
system.mem_ctrls.wrQLenPdf::49                      0                       # What write queue length does an incoming req see
system.mem_ctrls.wrQLenPdf::50                      0                       # What write queue length does an incoming req see
system.mem_ctrls.wrQLenPdf::51                      0                       # What write queue length does an incoming req see
system.mem_ctrls.wrQLenPdf::52                      0                       # What write queue length does an incoming req see
system.mem_ctrls.wrQLenPdf::53                      0                       # What write queue length does an incoming req see
system.mem_ctrls.wrQLenPdf::54                      0                       # What write queue length does an incoming req see
system.mem_ctrls.wrQLenPdf::55                      0                       # What write queue length does an incoming req see
system.mem_ctrls.wrQLenPdf::56                      0                       # What write queue length does an incoming req see
system.mem_ctrls.wrQLenPdf::57                      0                       # What write queue length does an incoming req see
system.mem_ctrls.wrQLenPdf::58                      0                       # What write queue length does an incoming req see
system.mem_ctrls.wrQLenPdf::59                      0                       # What write queue length does an incoming req see
system.mem_ctrls.wrQLenPdf::60                      0                       # What write queue length does an incoming req see
system.mem_ctrls.wrQLenPdf::61                      0                       # What write queue length does an incoming req see
system.mem_ctrls.wrQLenPdf::62                      0                       # What write queue length does an incoming req see
system.mem_ctrls.wrQLenPdf::63                      0                       # What write queue length does an incoming req see
system.mem_ctrls.writeBursts                        0                       # Number of DRAM write bursts, including those merged in the write queue
system.mem_ctrls.writePktSize::0                    0                       # Write request sizes (log2)
system.mem_ctrls.writePktSize::1                    0                       # Write request sizes (log2)
system.mem_ctrls.writePktSize::2                    0                       # Write request sizes (log2)
system.mem_ctrls.writePktSize::3                    0                       # Write request sizes (log2)
system.mem_ctrls.writePktSize::4                    0                       # Write request sizes (log2)
system.mem_ctrls.writePktSize::5                    0                       # Write request sizes (log2)
system.mem_ctrls.writePktSize::6                    0                       # Write request sizes (log2)
system.mem_ctrls.writeReqs                          0                       # Number of write requests accepted
system.mem_ctrls.writeRowHitRate                  nan                       # Row buffer hit rate for writes
system.mem_ctrls.writeRowHits                       0                       # Number of row buffer hits during writes
system.mem_ctrls_0.actBackEnergy               985416                       # Energy for active background per rank (pJ)
system.mem_ctrls_0.actEnergy                    57120                       # Energy for activate commands per rank (pJ)
system.mem_ctrls_0.actPowerDownEnergy         6027408                       # Energy for active power-down per rank (pJ)
system.mem_ctrls_0.averagePower            240.100001                       # Core power per rank (mW)
system.mem_ctrls_0.memoryStateTime::IDLE          158                       # Time in different power states
system.mem_ctrls_0.memoryStateTime::REF           520                       # Time in different power states
system.mem_ctrls_0.memoryStateTime::SREF     75040577                       # Time in different power states
system.mem_ctrls_0.memoryStateTime::PRE_PDN         7771                       # Time in different power states
system.mem_ctrls_0.memoryStateTime::ACT          1697                       # Time in different power states
system.mem_ctrls_0.memoryStateTime::ACT_PDN        13218                       # Time in different power states
system.mem_ctrls_0.preBackEnergy                82176                       # Energy for precharge background per rank (pJ)
system.mem_ctrls_0.preEnergy                    30912                       # Energy for precharge commands per rank (pJ)
system.mem_ctrls_0.prePowerDownEnergy         2984064                       # Energy for precharge power-down per rank (pJ)
system.mem_ctrls_0.readEnergy                 1165248                       # Energy for read commands per rank (pJ)
system.mem_ctrls_0.refreshEnergy         1229280.000000                       # Energy for refresh commands per rank (pJ)
system.mem_ctrls_0.selfRefreshEnergy      18010290720                       # Energy for self refresh per rank (pJ)
system.mem_ctrls_0.totalEnergy            18022852344                       # Total energy per rank (pJ)
system.mem_ctrls_0.totalIdleTime                20989                       # Total Idle time Per DRAM Rank
system.mem_ctrls_0.writeEnergy                      0                       # Energy for write commands per rank (pJ)
system.mem_ctrls_1.actBackEnergy               112176                       # Energy for active background per rank (pJ)
system.mem_ctrls_1.actEnergy                        0                       # Energy for activate commands per rank (pJ)
system.mem_ctrls_1.actPowerDownEnergy               0                       # Energy for active power-down per rank (pJ)
system.mem_ctrls_1.averagePower            240.045665                       # Core power per rank (mW)
system.mem_ctrls_1.memoryStateTime::IDLE         7792                       # Time in different power states
system.mem_ctrls_1.memoryStateTime::REF           260                       # Time in different power states
system.mem_ctrls_1.memoryStateTime::SREF     75048363                       # Time in different power states
system.mem_ctrls_1.memoryStateTime::PRE_PDN         7526                       # Time in different power states
system.mem_ctrls_1.memoryStateTime::ACT             0                       # Time in different power states
system.mem_ctrls_1.memoryStateTime::ACT_PDN            0                       # Time in different power states
system.mem_ctrls_1.preBackEnergy              2997504                       # Energy for precharge background per rank (pJ)
system.mem_ctrls_1.preEnergy                        0                       # Energy for precharge commands per rank (pJ)
system.mem_ctrls_1.prePowerDownEnergy         2889984                       # Energy for precharge power-down per rank (pJ)
system.mem_ctrls_1.readEnergy                       0                       # Energy for read commands per rank (pJ)
system.mem_ctrls_1.refreshEnergy         614640.000000                       # Energy for refresh commands per rank (pJ)
system.mem_ctrls_1.selfRefreshEnergy      18012159360                       # Energy for self refresh per rank (pJ)
system.mem_ctrls_1.totalEnergy            18018773664                       # Total energy per rank (pJ)
system.mem_ctrls_1.totalIdleTime                 7526                       # Total Idle time Per DRAM Rank
system.mem_ctrls_1.writeEnergy                      0                       # Energy for write commands per rank (pJ)
system.pwrStateResidencyTicks::UNDEFINED     75063941                       # Cumulative time (in ticks) in various power states
system.ruby.Directory_Controller.Fetch            102      0.00%      0.00%
system.ruby.Directory_Controller.I.Fetch          102      0.00%      0.00%
system.ruby.Directory_Controller.IM.Memory_Data          102      0.00%      0.00%
system.ruby.Directory_Controller.Memory_Data          102      0.00%      0.00%
system.ruby.IFETCH.hit_latency_hist_seqr::bucket_size           16                      
system.ruby.IFETCH.hit_latency_hist_seqr::max_bucket          159                      
system.ruby.IFETCH.hit_latency_hist_seqr::samples          667                      
system.ruby.IFETCH.hit_latency_hist_seqr::mean    14.275862                      
system.ruby.IFETCH.hit_latency_hist_seqr::gmean     3.415541                      
system.ruby.IFETCH.hit_latency_hist_seqr::stdev    33.625951                      
system.ruby.IFETCH.hit_latency_hist_seqr |         594     89.06%     89.06% |           0      0.00%     89.06% |           0      0.00%     89.06% |           0      0.00%     89.06% |           0      0.00%     89.06% |           0      0.00%     89.06% |          43      6.45%     95.50% |          30      4.50%    100.00% |           0      0.00%    100.00% |           0      0.00%    100.00%
system.ruby.IFETCH.hit_latency_hist_seqr::total          667                      
system.ruby.IFETCH.latency_hist_seqr::bucket_size         2048                      
system.ruby.IFETCH.latency_hist_seqr::max_bucket        20479                      
system.ruby.IFETCH.latency_hist_seqr::samples       249728                      
system.ruby.IFETCH.latency_hist_seqr::mean  4339.145082                      
system.ruby.IFETCH.latency_hist_seqr::gmean  4145.897339                      
system.ruby.IFETCH.latency_hist_seqr::stdev  1189.651320                      
system.ruby.IFETCH.latency_hist_seqr     |         845      0.34%      0.34% |      121707     48.74%     49.07% |      109078     43.68%     92.75% |       13140      5.26%     98.01% |        4373      1.75%     99.77% |         552      0.22%     99.99% |          31      0.01%    100.00% |           2      0.00%    100.00% |           0      0.00%    100.00% |           0      0.00%    100.00%
system.ruby.IFETCH.latency_hist_seqr::total       249728                      
system.ruby.IFETCH.miss_latency_hist_seqr::bucket_size         2048                      
system.ruby.IFETCH.miss_latency_hist_seqr::max_bucket        20479                      
system.ruby.IFETCH.miss_latency_hist_seqr::samples       249061                      
system.ruby.IFETCH.miss_latency_hist_seqr::mean  4350.727336                      
system.ruby.IFETCH.miss_latency_hist_seqr::gmean  4225.499972                      
system.ruby.IFETCH.miss_latency_hist_seqr::stdev  1169.970661                      
system.ruby.IFETCH.miss_latency_hist_seqr |         178      0.07%      0.07% |      121707     48.87%     48.94% |      109078     43.80%     92.73% |       13140      5.28%     98.01% |        4373      1.76%     99.77% |         552      0.22%     99.99% |          31      0.01%    100.00% |           2      0.00%    100.00% |           0      0.00%    100.00% |           0      0.00%    100.00%
system.ruby.IFETCH.miss_latency_hist_seqr::total       249061                      
system.ruby.L1Cache_Controller.Ack       |       33326      6.22%      6.22% |       33822      6.31%     12.52% |       33603      6.27%     18.79% |       33527      6.25%     25.04% |       33321      6.21%     31.26% |       33195      6.19%     37.45% |       33561      6.26%     43.71% |       33646      6.27%     49.98% |       33630      6.27%     56.25% |       33606      6.27%     62.52% |       33402      6.23%     68.75% |       33468      6.24%     74.99% |       33510      6.25%     81.24% |       33487      6.25%     87.49% |       33330      6.22%     93.70% |       33758      6.30%    100.00%
system.ruby.L1Cache_Controller.Ack::total       536192                      
system.ruby.L1Cache_Controller.Ack_all   |          32      6.78%      6.78% |          25      5.30%     12.08% |          31      6.57%     18.64% |          30      6.36%     25.00% |          31      6.57%     31.57% |          30      6.36%     37.92% |          27      5.72%     43.64% |          41      8.69%     52.33% |          28      5.93%     58.26% |          20      4.24%     62.50% |          29      6.14%     68.64% |          23      4.87%     73.52% |          25      5.30%     78.81% |          26      5.51%     84.32% |          40      8.47%     92.80% |          34      7.20%    100.00%
system.ruby.L1Cache_Controller.Ack_all::total          472                      
system.ruby.L1Cache_Controller.Ack_all_Last_Touch |       12161      6.22%      6.22% |       12316      6.30%     12.52% |       12159      6.22%     18.74% |       12244      6.26%     25.01% |       12061      6.17%     31.18% |       12083      6.18%     37.36% |       12218      6.25%     43.61% |       12130      6.21%     49.82% |       12306      6.30%     56.12% |       12272      6.28%     62.39% |       12219      6.25%     68.65% |       12279      6.28%     74.93% |       12201      6.24%     81.17% |       12459      6.37%     87.55% |       12190      6.24%     93.78% |       12153      6.22%    100.00%
system.ruby.L1Cache_Controller.Ack_all_Last_Touch::total       195451                      
system.ruby.L1Cache_Controller.Data      |       12193      6.22%      6.22% |       12341      6.30%     12.52% |       12188      6.22%     18.75% |       12274      6.27%     25.01% |       12092      6.17%     31.18% |       12110      6.18%     37.37% |       12243      6.25%     43.62% |       12167      6.21%     49.83% |       12331      6.29%     56.12% |       12291      6.27%     62.40% |       12247      6.25%     68.65% |       12301      6.28%     74.93% |       12223      6.24%     81.17% |       12482      6.37%     87.54% |       12228      6.24%     93.78% |       12186      6.22%    100.00%
system.ruby.L1Cache_Controller.Data::total       195897                      
system.ruby.L1Cache_Controller.DataS_fromL1 |        7986      6.16%      6.16% |        8085      6.23%     12.39% |        8088      6.23%     18.62% |        8122      6.26%     24.88% |        8102      6.25%     31.13% |        8020      6.18%     37.31% |        8089      6.24%     43.55% |        7975      6.15%     49.69% |        8087      6.23%     55.93% |        8094      6.24%     62.17% |        8272      6.38%     68.54% |        8227      6.34%     74.88% |        8070      6.22%     81.11% |        8274      6.38%     87.48% |        8033      6.19%     93.68% |        8205      6.32%    100.00%
system.ruby.L1Cache_Controller.DataS_fromL1::total       129729                      
system.ruby.L1Cache_Controller.DataS_fromL1_Last_Touch |        8038      6.19%      6.19% |        8318      6.40%     12.59% |        8104      6.24%     18.83% |        8120      6.25%     25.09% |        8031      6.18%     31.27% |        8042      6.19%     37.46% |        8108      6.24%     43.71% |        8249      6.35%     50.06% |        7980      6.14%     56.20% |        8153      6.28%     62.48% |        8083      6.22%     68.70% |        8232      6.34%     75.04% |        8002      6.16%     81.20% |        8101      6.24%     87.44% |        8187      6.30%     93.74% |        8125      6.26%    100.00%
system.ruby.L1Cache_Controller.DataS_fromL1_Last_Touch::total       129873                      
system.ruby.L1Cache_Controller.Data_all_Acks |        7568      6.16%      6.16% |        7652      6.23%     12.38% |        7721      6.28%     18.66% |        7658      6.23%     24.89% |        7742      6.30%     31.19% |        7670      6.24%     37.43% |        7638      6.21%     43.65% |        7825      6.37%     50.01% |        7689      6.26%     56.27% |        7806      6.35%     62.62% |        7644      6.22%     68.84% |        7783      6.33%     75.17% |        7795      6.34%     81.51% |        7481      6.09%     87.60% |        7691      6.26%     93.85% |        7555      6.15%    100.00%
system.ruby.L1Cache_Controller.Data_all_Acks::total       122918                      
system.ruby.L1Cache_Controller.Data_all_Acks_Last_Touch |      120208      6.26%      6.26% |      120206      6.26%     12.51% |      119686      6.23%     18.74% |      120604      6.28%     25.02% |      119724      6.23%     31.25% |      120230      6.26%     37.51% |      119762      6.23%     43.75% |      119965      6.24%     49.99% |      120485      6.27%     56.26% |      119356      6.21%     62.48% |      120126      6.25%     68.73% |      120191      6.26%     74.98% |      120167      6.26%     81.24% |      120396      6.27%     87.51% |      119878      6.24%     93.75% |      120135      6.25%    100.00%
system.ruby.L1Cache_Controller.Data_all_Acks_Last_Touch::total      1921119                      
system.ruby.L1Cache_Controller.Fwd_GETS  |        8207      6.31%      6.31% |        8272      6.36%     12.66% |        8027      6.17%     18.83% |        8021      6.16%     25.00% |        7906      6.08%     31.07% |        8138      6.25%     37.33% |        8082      6.21%     43.54% |        8064      6.20%     49.74% |        8154      6.27%     56.00% |        8202      6.30%     62.31% |        8244      6.34%     68.64% |        8199      6.30%     74.94% |        8196      6.30%     81.24% |        8016      6.16%     87.40% |        8213      6.31%     93.71% |        8179      6.29%    100.00%
system.ruby.L1Cache_Controller.Fwd_GETS::total       130120                      
system.ruby.L1Cache_Controller.Fwd_GETX  |       65164      6.25%      6.25% |       65111      6.24%     12.49% |       65059      6.24%     18.72% |       65576      6.29%     25.01% |       65637      6.29%     31.30% |       64920      6.22%     37.52% |       64819      6.21%     43.73% |       65150      6.24%     49.98% |       65329      6.26%     56.24% |       65092      6.24%     62.48% |       65011      6.23%     68.71% |       65202      6.25%     74.96% |       65257      6.25%     81.22% |       65599      6.29%     87.50% |       65080      6.24%     93.74% |       65300      6.26%    100.00%
system.ruby.L1Cache_Controller.Fwd_GETX::total      1043306                      
system.ruby.L1Cache_Controller.Fwd_GET_INSTR |        8166      6.31%      6.31% |        8201      6.33%     12.64% |        8022      6.20%     18.84% |        8244      6.37%     25.20% |        8085      6.24%     31.45% |        8189      6.32%     37.77% |        8043      6.21%     43.98% |        8210      6.34%     50.32% |        8087      6.25%     56.57% |        8005      6.18%     62.75% |        7976      6.16%     68.91% |        8154      6.30%     75.21% |        7919      6.12%     81.32% |        8042      6.21%     87.54% |        8212      6.34%     93.88% |        7928      6.12%    100.00%
system.ruby.L1Cache_Controller.Fwd_GET_INSTR::total       129483                      
system.ruby.L1Cache_Controller.I.Ifetch  |        1248      5.85%      5.85% |        1329      6.23%     12.08% |        1277      5.99%     18.07% |        1298      6.09%     24.15% |        1343      6.30%     30.45% |        1353      6.34%     36.79% |        1312      6.15%     42.95% |        1321      6.19%     49.14% |        1362      6.39%     55.53% |        1386      6.50%     62.02% |        1400      6.56%     68.59% |        1407      6.60%     75.18% |        1291      6.05%     81.24% |        1315      6.17%     87.40% |        1344      6.30%     93.70% |        1343      6.30%    100.00%
system.ruby.L1Cache_Controller.I.Ifetch::total        21329                      
system.ruby.L1Cache_Controller.I.Inv     |       25220      6.28%      6.28% |       25611      6.37%     12.65% |       24893      6.19%     18.84% |       25182      6.27%     25.11% |       24798      6.17%     31.28% |       25052      6.23%     37.51% |       24994      6.22%     43.73% |       25308      6.30%     50.03% |       25047      6.23%     56.26% |       25095      6.24%     62.50% |       25100      6.25%     68.75% |       25315      6.30%     75.05% |       24923      6.20%     81.25% |       25047      6.23%     87.48% |       25293      6.29%     93.77% |       25021      6.23%    100.00%
system.ruby.L1Cache_Controller.I.Inv::total       401899                      
system.ruby.L1Cache_Controller.I.L1_Replacement |       27074      6.19%      6.19% |       27291      6.24%     12.43% |       27495      6.29%     18.71% |       27392      6.26%     24.97% |       27421      6.27%     31.24% |       27178      6.21%     37.45% |       27253      6.23%     43.68% |       27390      6.26%     49.94% |       27225      6.22%     56.17% |       27443      6.27%     62.44% |       27425      6.27%     68.71% |       27544      6.30%     75.01% |       27606      6.31%     81.32% |       27266      6.23%     87.55% |       27184      6.21%     93.76% |       27283      6.24%    100.00%
system.ruby.L1Cache_Controller.I.L1_Replacement::total       437470                      
system.ruby.L1Cache_Controller.I.Load    |           8      3.85%      3.85% |          19      9.13%     12.98% |          10      4.81%     17.79% |          18      8.65%     26.44% |          17      8.17%     34.62% |          12      5.77%     40.38% |          12      5.77%     46.15% |          12      5.77%     51.92% |          15      7.21%     59.13% |          11      5.29%     64.42% |           8      3.85%     68.27% |          15      7.21%     75.48% |          21     10.10%     85.58% |          13      6.25%     91.83% |           9      4.33%     96.15% |           8      3.85%    100.00%
system.ruby.L1Cache_Controller.I.Load::total          208                      
system.ruby.L1Cache_Controller.I.Load_Last_Touch |       14235      6.24%      6.24% |       14534      6.37%     12.60% |       14079      6.17%     18.77% |       14356      6.29%     25.06% |       14060      6.16%     31.22% |       14097      6.18%     37.40% |       14248      6.24%     43.64% |       14458      6.33%     49.97% |       14242      6.24%     56.21% |       14265      6.25%     62.46% |       14184      6.21%     68.68% |       14321      6.27%     74.95% |       14181      6.21%     81.16% |       14310      6.27%     87.43% |       14252      6.24%     93.68% |       14436      6.32%    100.00%
system.ruby.L1Cache_Controller.I.Load_Last_Touch::total       228258                      
system.ruby.L1Cache_Controller.I.Store   |         127      6.72%      6.72% |         115      6.09%     12.81% |         113      5.98%     18.79% |         109      5.77%     24.56% |         116      6.14%     30.70% |         117      6.19%     36.90% |         114      6.03%     42.93% |         123      6.51%     49.44% |         122      6.46%     55.90% |         119      6.30%     62.20% |         121      6.41%     68.61% |         120      6.35%     74.96% |         112      5.93%     80.89% |         112      5.93%     86.82% |         127      6.72%     93.54% |         122      6.46%    100.00%
system.ruby.L1Cache_Controller.I.Store::total         1889                      
system.ruby.L1Cache_Controller.I.Store_Last_Touch |      112129      6.26%      6.26% |      112151      6.26%     12.52% |      111590      6.23%     18.75% |      112393      6.28%     25.03% |      111527      6.23%     31.25% |      112184      6.26%     37.52% |      111689      6.24%     43.75% |      111681      6.24%     49.99% |      112375      6.27%     56.26% |      111284      6.21%     62.48% |      111992      6.25%     68.73% |      112057      6.26%     74.98% |      111877      6.25%     81.23% |      112476      6.28%     87.51% |      111881      6.25%     93.76% |      111822      6.24%    100.00%
system.ruby.L1Cache_Controller.I.Store_Last_Touch::total      1791108                      
system.ruby.L1Cache_Controller.IM.Ack    |       26770      6.19%      6.19% |       27342      6.33%     12.52% |       27096      6.27%     18.79% |       27168      6.29%     25.08% |       26880      6.22%     31.30% |       26753      6.19%     37.49% |       26978      6.24%     43.73% |       27194      6.29%     50.02% |       27085      6.27%     56.29% |       27099      6.27%     62.56% |       26789      6.20%     68.76% |       26939      6.23%     74.99% |       27071      6.26%     81.26% |       26809      6.20%     87.46% |       26905      6.23%     93.69% |       27276      6.31%    100.00%
system.ruby.L1Cache_Controller.IM.Ack::total       432154                      
system.ruby.L1Cache_Controller.IM.Data   |       12193      6.22%      6.22% |       12341      6.30%     12.52% |       12188      6.22%     18.75% |       12274      6.27%     25.01% |       12092      6.17%     31.18% |       12110      6.18%     37.37% |       12243      6.25%     43.62% |       12167      6.21%     49.83% |       12331      6.29%     56.12% |       12291      6.27%     62.40% |       12247      6.25%     68.65% |       12301      6.28%     74.93% |       12223      6.24%     81.17% |       12482      6.37%     87.54% |       12228      6.24%     93.78% |       12186      6.22%    100.00%
system.ruby.L1Cache_Controller.IM.Data::total       195897                      
system.ruby.L1Cache_Controller.IM.Data_all_Acks |         206      6.41%      6.41% |         195      6.07%     12.48% |         191      5.95%     18.43% |         191      5.95%     24.38% |         196      6.10%     30.48% |         199      6.20%     36.67% |         200      6.23%     42.90% |         196      6.10%     49.00% |         204      6.35%     55.35% |         217      6.76%     62.11% |         209      6.51%     68.62% |         205      6.38%     75.00% |         200      6.23%     81.23% |         200      6.23%     87.45% |         202      6.29%     93.74% |         201      6.26%    100.00%
system.ruby.L1Cache_Controller.IM.Data_all_Acks::total         3212                      
system.ruby.L1Cache_Controller.IM.Data_all_Acks_Last_Touch |      112676      6.26%      6.26% |      112623      6.25%     12.51% |      112363      6.24%     18.75% |      113028      6.28%     25.02% |      112297      6.23%     31.26% |      112818      6.26%     37.52% |      112291      6.23%     43.76% |      112386      6.24%     50.00% |      112923      6.27%     56.27% |      111901      6.21%     62.48% |      112708      6.26%     68.74% |      112697      6.26%     74.99% |      112665      6.26%     81.25% |      112840      6.26%     87.51% |      112401      6.24%     93.75% |      112505      6.25%    100.00%
system.ruby.L1Cache_Controller.IM.Data_all_Acks_Last_Touch::total      1801122                      
system.ruby.L1Cache_Controller.IM.Inv    |        2022      6.33%      6.33% |        1969      6.17%     12.50% |        2014      6.31%     18.81% |        1952      6.12%     24.93% |        1954      6.12%     31.05% |        1950      6.11%     37.16% |        2030      6.36%     43.52% |        2050      6.42%     49.94% |        2017      6.32%     56.26% |        2033      6.37%     62.63% |        1974      6.18%     68.81% |        2020      6.33%     75.14% |        1936      6.06%     81.20% |        2007      6.29%     87.49% |        2009      6.29%     93.78% |        1984      6.22%    100.00%
system.ruby.L1Cache_Controller.IM.Inv::total        31921                      
system.ruby.L1Cache_Controller.IS.DataS_fromL1 |        7916      6.16%      6.16% |        7996      6.22%     12.38% |        8013      6.24%     18.62% |        8039      6.26%     24.88% |        8025      6.25%     31.12% |        7951      6.19%     37.31% |        8013      6.24%     43.54% |        7899      6.15%     49.69% |        8010      6.23%     55.93% |        8009      6.23%     62.16% |        8186      6.37%     68.53% |        8138      6.33%     74.86% |        8009      6.23%     81.10% |        8197      6.38%     87.47% |        7964      6.20%     93.67% |        8130      6.33%    100.00%
system.ruby.L1Cache_Controller.IS.DataS_fromL1::total       128495                      
system.ruby.L1Cache_Controller.IS.DataS_fromL1_Last_Touch |        7945      6.19%      6.19% |        8212      6.40%     12.60% |        8001      6.24%     18.83% |        8033      6.26%     25.09% |        7921      6.17%     31.27% |        7929      6.18%     37.45% |        8023      6.25%     43.71% |        8166      6.37%     50.07% |        7892      6.15%     56.22% |        8056      6.28%     62.50% |        7986      6.23%     68.73% |        8122      6.33%     75.06% |        7895      6.15%     81.22% |        7981      6.22%     87.44% |        8099      6.31%     93.75% |        8016      6.25%    100.00%
system.ruby.L1Cache_Controller.IS.DataS_fromL1_Last_Touch::total       128277                      
system.ruby.L1Cache_Controller.IS.Data_all_Acks |        6818      6.15%      6.15% |        6856      6.18%     12.33% |        6939      6.26%     18.58% |        6936      6.25%     24.83% |        6983      6.29%     31.13% |        6879      6.20%     37.33% |        6905      6.22%     43.55% |        7091      6.39%     49.95% |        6933      6.25%     56.20% |        7054      6.36%     62.55% |        6898      6.22%     68.77% |        7042      6.35%     75.12% |        7060      6.36%     81.48% |        6741      6.08%     87.56% |        6978      6.29%     93.85% |        6821      6.15%    100.00%
system.ruby.L1Cache_Controller.IS.Data_all_Acks::total       110934                      
system.ruby.L1Cache_Controller.IS.Data_all_Acks_Last_Touch |        7005      6.31%      6.31% |        7032      6.33%     12.64% |        6760      6.09%     18.73% |        6973      6.28%     25.01% |        6882      6.20%     31.20% |        6856      6.17%     37.38% |        6931      6.24%     43.62% |        7018      6.32%     49.94% |        7024      6.33%     56.26% |        6895      6.21%     62.47% |        6890      6.20%     68.68% |        6902      6.22%     74.89% |        6954      6.26%     81.15% |        6986      6.29%     87.44% |        6907      6.22%     93.66% |        7036      6.34%    100.00%
system.ruby.L1Cache_Controller.IS.Data_all_Acks_Last_Touch::total       111051                      
system.ruby.L1Cache_Controller.IS.Inv    |        1234      6.01%      6.01% |        1347      6.56%     12.56% |        1332      6.48%     19.04% |        1304      6.35%     25.39% |        1295      6.30%     31.69% |        1330      6.47%     38.16% |        1234      6.01%     44.17% |        1258      6.12%     50.29% |        1255      6.11%     56.40% |        1277      6.21%     62.61% |        1248      6.07%     68.69% |        1327      6.46%     75.15% |        1251      6.09%     81.23% |        1307      6.36%     87.59% |        1238      6.02%     93.62% |        1311      6.38%    100.00%
system.ruby.L1Cache_Controller.IS.Inv::total        20548                      
system.ruby.L1Cache_Controller.IS_I.DataS_fromL1 |          70      5.67%      5.67% |          89      7.21%     12.88% |          75      6.08%     18.96% |          83      6.73%     25.69% |          77      6.24%     31.93% |          69      5.59%     37.52% |          76      6.16%     43.68% |          76      6.16%     49.84% |          77      6.24%     56.08% |          85      6.89%     62.97% |          86      6.97%     69.94% |          89      7.21%     77.15% |          61      4.94%     82.09% |          77      6.24%     88.33% |          69      5.59%     93.92% |          75      6.08%    100.00%
system.ruby.L1Cache_Controller.IS_I.DataS_fromL1::total         1234                      
system.ruby.L1Cache_Controller.IS_I.DataS_fromL1_Last_Touch |          93      5.83%      5.83% |         106      6.64%     12.47% |         103      6.45%     18.92% |          87      5.45%     24.37% |         110      6.89%     31.27% |         113      7.08%     38.35% |          85      5.33%     43.67% |          83      5.20%     48.87% |          88      5.51%     54.39% |          97      6.08%     60.46% |          97      6.08%     66.54% |         110      6.89%     73.43% |         107      6.70%     80.14% |         120      7.52%     87.66% |          88      5.51%     93.17% |         109      6.83%    100.00%
system.ruby.L1Cache_Controller.IS_I.DataS_fromL1_Last_Touch::total         1596                      
system.ruby.L1Cache_Controller.IS_I.Data_all_Acks |         544      6.20%      6.20% |         601      6.85%     13.05% |         591      6.74%     19.79% |         531      6.05%     25.84% |         563      6.42%     32.26% |         592      6.75%     39.01% |         533      6.08%     45.09% |         538      6.13%     51.22% |         552      6.29%     57.51% |         535      6.10%     63.61% |         537      6.12%     69.73% |         536      6.11%     75.84% |         535      6.10%     81.94% |         540      6.16%     88.10% |         511      5.83%     93.92% |         533      6.08%    100.00%
system.ruby.L1Cache_Controller.IS_I.Data_all_Acks::total         8772                      
system.ruby.L1Cache_Controller.IS_I.Data_all_Acks_Last_Touch |         527      5.89%      5.89% |         551      6.16%     12.05% |         563      6.29%     18.34% |         603      6.74%     25.08% |         545      6.09%     31.18% |         556      6.22%     37.39% |         540      6.04%     43.43% |         561      6.27%     49.70% |         538      6.01%     55.71% |         560      6.26%     61.97% |         528      5.90%     67.87% |         592      6.62%     74.49% |         548      6.13%     80.62% |         570      6.37%     86.99% |         570      6.37%     93.36% |         594      6.64%    100.00%
system.ruby.L1Cache_Controller.IS_I.Data_all_Acks_Last_Touch::total         8946                      
system.ruby.L1Cache_Controller.IS_I.Inv  |           4      9.52%      9.52% |           1      2.38%     11.90% |           2      4.76%     16.67% |           1      2.38%     19.05% |           2      4.76%     23.81% |           2      4.76%     28.57% |           2      4.76%     33.33% |           5     11.90%     45.24% |           3      7.14%     52.38% |           2      4.76%     57.14% |           2      4.76%     61.90% |           4      9.52%     71.43% |           2      4.76%     76.19% |           3      7.14%     83.33% |           3      7.14%     90.48% |           4      9.52%    100.00%
system.ruby.L1Cache_Controller.IS_I.Inv::total           42                      
system.ruby.L1Cache_Controller.Ifetch    |       15371      6.15%      6.15% |       15563      6.23%     12.39% |       15638      6.26%     18.65% |       15610      6.25%     24.90% |       15663      6.27%     31.17% |       15511      6.21%     37.38% |       15547      6.22%     43.60% |       15624      6.26%     49.86% |       15580      6.24%     56.10% |       15717      6.29%     62.39% |       15738      6.30%     68.69% |       15821      6.33%     75.02% |       15670      6.27%     81.30% |       15575      6.24%     87.53% |       15547      6.22%     93.76% |       15591      6.24%    100.00%
system.ruby.L1Cache_Controller.Ifetch::total       249766                      
system.ruby.L1Cache_Controller.Inv       |       45633      6.23%      6.23% |       46217      6.31%     12.55% |       45496      6.21%     18.76% |       45832      6.26%     25.02% |       45505      6.22%     31.24% |       45604      6.23%     37.47% |       45557      6.22%     43.69% |       46009      6.28%     49.97% |       45635      6.23%     56.21% |       45845      6.26%     62.47% |       45702      6.24%     68.71% |       46174      6.31%     75.02% |       45621      6.23%     81.25% |       45597      6.23%     87.48% |       45962      6.28%     93.76% |       45700      6.24%    100.00%
system.ruby.L1Cache_Controller.Inv::total       732089                      
system.ruby.L1Cache_Controller.L1_Replacement |       29915      6.19%      6.19% |       30091      6.23%     12.42% |       30397      6.29%     18.71% |       30313      6.27%     24.98% |       30289      6.27%     31.25% |       29988      6.21%     37.45% |       30018      6.21%     43.66% |       30300      6.27%     49.94% |       30093      6.23%     56.16% |       30313      6.27%     62.43% |       30340      6.28%     68.71% |       30421      6.30%     75.01% |       30470      6.31%     81.31% |       30202      6.25%     87.56% |       30000      6.21%     93.77% |       30100      6.23%    100.00%
system.ruby.L1Cache_Controller.L1_Replacement::total       483250                      
system.ruby.L1Cache_Controller.Load      |        1358      6.16%      6.16% |        1399      6.35%     12.51% |        1374      6.23%     18.74% |        1369      6.21%     24.95% |        1434      6.51%     31.46% |        1384      6.28%     37.74% |        1360      6.17%     43.91% |        1403      6.36%     50.27% |        1326      6.02%     56.29% |        1364      6.19%     62.47% |        1334      6.05%     68.53% |        1435      6.51%     75.04% |        1355      6.15%     81.18% |        1374      6.23%     87.42% |        1432      6.50%     93.91% |        1342      6.09%    100.00%
system.ruby.L1Cache_Controller.Load::total        22043                      
system.ruby.L1Cache_Controller.Load_Last_Touch |       16021      6.25%      6.25% |       16290      6.35%     12.60% |       15803      6.16%     18.77% |       16158      6.30%     25.07% |       15772      6.15%     31.22% |       15792      6.16%     37.38% |       15999      6.24%     43.62% |       16257      6.34%     49.96% |       15985      6.23%     56.20% |       16030      6.25%     62.45% |       15925      6.21%     68.66% |       16146      6.30%     74.96% |       15965      6.23%     81.18% |       16069      6.27%     87.45% |       15945      6.22%     93.67% |       16230      6.33%    100.00%
system.ruby.L1Cache_Controller.Load_Last_Touch::total       256387                      
system.ruby.L1Cache_Controller.M.Fwd_GETS |          22      6.77%      6.77% |          18      5.54%     12.31% |          15      4.62%     16.92% |          22      6.77%     23.69% |          16      4.92%     28.62% |          26      8.00%     36.62% |          21      6.46%     43.08% |          14      4.31%     47.38% |           9      2.77%     50.15% |          13      4.00%     54.15% |          29      8.92%     63.08% |          15      4.62%     67.69% |          21      6.46%     74.15% |          28      8.62%     82.77% |          28      8.62%     91.38% |          28      8.62%    100.00%
system.ruby.L1Cache_Controller.M.Fwd_GETS::total          325                      
system.ruby.L1Cache_Controller.M.Fwd_GETX |         190      6.47%      6.47% |         183      6.23%     12.70% |         178      6.06%     18.77% |         169      5.76%     24.52% |         175      5.96%     30.48% |         171      5.82%     36.31% |         183      6.23%     42.54% |         190      6.47%     49.01% |         199      6.78%     55.79% |         194      6.61%     62.40% |         183      6.23%     68.63% |         188      6.40%     75.03% |         180      6.13%     81.16% |         179      6.10%     87.26% |         190      6.47%     93.73% |         184      6.27%    100.00%
system.ruby.L1Cache_Controller.M.Fwd_GETX::total         2936                      
system.ruby.L1Cache_Controller.M.Fwd_GET_INSTR |          20      5.76%      5.76% |          16      4.61%     10.37% |          27      7.78%     18.16% |          25      7.20%     25.36% |          30      8.65%     34.01% |          27      7.78%     41.79% |          19      5.48%     47.26% |          26      7.49%     54.76% |          21      6.05%     60.81% |          26      7.49%     68.30% |          21      6.05%     74.35% |          18      5.19%     79.54% |          20      5.76%     85.30% |          15      4.32%     89.63% |          18      5.19%     94.81% |          18      5.19%    100.00%
system.ruby.L1Cache_Controller.M.Fwd_GET_INSTR::total          347                      
system.ruby.L1Cache_Controller.M.L1_Replacement |           0      0.00%      0.00% |           1      3.45%      3.45% |           1      3.45%      6.90% |           3     10.34%     17.24% |           1      3.45%     20.69% |           2      6.90%     27.59% |           3     10.34%     37.93% |           2      6.90%     44.83% |           0      0.00%     44.83% |           4     13.79%     58.62% |           1      3.45%     62.07% |           3     10.34%     72.41% |           0      0.00%     72.41% |           3     10.34%     82.76% |           5     17.24%    100.00% |           0      0.00%    100.00%
system.ruby.L1Cache_Controller.M.L1_Replacement::total           29                      
system.ruby.L1Cache_Controller.M.Load    |           2     14.29%     14.29% |           0      0.00%     14.29% |           0      0.00%     14.29% |           0      0.00%     14.29% |           2     14.29%     28.57% |           0      0.00%     28.57% |           0      0.00%     28.57% |           2     14.29%     42.86% |           0      0.00%     42.86% |           0      0.00%     42.86% |           1      7.14%     50.00% |           2     14.29%     64.29% |           1      7.14%     71.43% |           1      7.14%     78.57% |           1      7.14%     85.71% |           2     14.29%    100.00%
system.ruby.L1Cache_Controller.M.Load::total           14                      
system.ruby.L1Cache_Controller.M.Load_Last_Touch |           0      0.00%      0.00% |           1     11.11%     11.11% |           0      0.00%     11.11% |           0      0.00%     11.11% |           0      0.00%     11.11% |           1     11.11%     22.22% |           0      0.00%     22.22% |           2     22.22%     44.44% |           1     11.11%     55.56% |           0      0.00%     55.56% |           1     11.11%     66.67% |           1     11.11%     77.78% |           0      0.00%     77.78% |           1     11.11%     88.89% |           1     11.11%    100.00% |           0      0.00%    100.00%
system.ruby.L1Cache_Controller.M.Load_Last_Touch::total            9                      
system.ruby.L1Cache_Controller.M.Store   |          14      8.09%      8.09% |          10      5.78%     13.87% |           7      4.05%     17.92% |           4      2.31%     20.23% |           7      4.05%     24.28% |          14      8.09%     32.37% |           9      5.20%     37.57% |          15      8.67%     46.24% |          13      7.51%     53.76% |          16      9.25%     63.01% |           9      5.20%     68.21% |           9      5.20%     73.41% |          12      6.94%     80.35% |           8      4.62%     84.97% |          14      8.09%     93.06% |          12      6.94%    100.00%
system.ruby.L1Cache_Controller.M.Store::total          173                      
system.ruby.L1Cache_Controller.M.Store_Last_Touch |           6     15.79%     15.79% |           1      2.63%     18.42% |           1      2.63%     21.05% |           2      5.26%     26.32% |           5     13.16%     39.47% |           2      5.26%     44.74% |           1      2.63%     47.37% |           3      7.89%     55.26% |           2      5.26%     60.53% |           0      0.00%     60.53% |           3      7.89%     68.42% |           3      7.89%     76.32% |           4     10.53%     86.84% |           0      0.00%     86.84% |           0      0.00%     86.84% |           5     13.16%    100.00%
system.ruby.L1Cache_Controller.M.Store_Last_Touch::total           38                      
system.ruby.L1Cache_Controller.M_I.Fwd_GETS |        8185      6.31%      6.31% |        8254      6.36%     12.67% |        8012      6.17%     18.84% |        7999      6.16%     25.00% |        7890      6.08%     31.08% |        8112      6.25%     37.33% |        8061      6.21%     43.54% |        8050      6.20%     49.74% |        8145      6.28%     56.02% |        8189      6.31%     62.33% |        8215      6.33%     68.66% |        8184      6.31%     74.96% |        8175      6.30%     81.26% |        7988      6.15%     87.41% |        8185      6.31%     93.72% |        8151      6.28%    100.00%
system.ruby.L1Cache_Controller.M_I.Fwd_GETS::total       129795                      
system.ruby.L1Cache_Controller.M_I.Fwd_GETX |       64974      6.25%      6.25% |       64928      6.24%     12.49% |       64881      6.24%     18.72% |       65407      6.29%     25.01% |       65462      6.29%     31.30% |       64749      6.22%     37.53% |       64636      6.21%     43.74% |       64960      6.24%     49.98% |       65130      6.26%     56.24% |       64898      6.24%     62.48% |       64828      6.23%     68.71% |       65014      6.25%     74.96% |       65077      6.26%     81.22% |       65420      6.29%     87.50% |       64890      6.24%     93.74% |       65116      6.26%    100.00%
system.ruby.L1Cache_Controller.M_I.Fwd_GETX::total      1040370                      
system.ruby.L1Cache_Controller.M_I.Fwd_GET_INSTR |        8146      6.31%      6.31% |        8185      6.34%     12.65% |        7995      6.19%     18.84% |        8219      6.36%     25.20% |        8055      6.24%     31.44% |        8162      6.32%     37.76% |        8024      6.21%     43.97% |        8184      6.34%     50.31% |        8066      6.25%     56.56% |        7979      6.18%     62.74% |        7955      6.16%     68.90% |        8136      6.30%     75.20% |        7899      6.12%     81.31% |        8027      6.22%     87.53% |        8194      6.35%     93.87% |        7910      6.13%    100.00%
system.ruby.L1Cache_Controller.M_I.Fwd_GET_INSTR::total       129136                      
system.ruby.L1Cache_Controller.M_I.Ifetch |           0      0.00%      0.00% |           1      3.45%      3.45% |           1      3.45%      6.90% |           3     10.34%     17.24% |           1      3.45%     20.69% |           2      6.90%     27.59% |           3     10.34%     37.93% |           2      6.90%     44.83% |           0      0.00%     44.83% |           4     13.79%     58.62% |           1      3.45%     62.07% |           3     10.34%     72.41% |           0      0.00%     72.41% |           3     10.34%     82.76% |           5     17.24%    100.00% |           0      0.00%    100.00%
system.ruby.L1Cache_Controller.M_I.Ifetch::total           29                      
system.ruby.L1Cache_Controller.M_I.L1_Replacement |         859      6.13%      6.13% |         866      6.18%     12.31% |         920      6.57%     18.88% |         870      6.21%     25.09% |         852      6.08%     31.17% |         863      6.16%     37.33% |         849      6.06%     43.38% |         909      6.49%     49.87% |         879      6.27%     56.14% |         900      6.42%     62.57% |         881      6.29%     68.86% |         850      6.07%     74.92% |         857      6.12%     81.04% |         911      6.50%     87.54% |         851      6.07%     93.61% |         895      6.39%    100.00%
system.ruby.L1Cache_Controller.M_I.L1_Replacement::total        14012                      
system.ruby.L1Cache_Controller.M_I.Load  |           1     20.00%     20.00% |           0      0.00%     20.00% |           0      0.00%     20.00% |           0      0.00%     20.00% |           1     20.00%     40.00% |           0      0.00%     40.00% |           0      0.00%     40.00% |           1     20.00%     60.00% |           0      0.00%     60.00% |           0      0.00%     60.00% |           0      0.00%     60.00% |           0      0.00%     60.00% |           0      0.00%     60.00% |           0      0.00%     60.00% |           1     20.00%     80.00% |           1     20.00%    100.00%
system.ruby.L1Cache_Controller.M_I.Load::total            5                      
system.ruby.L1Cache_Controller.M_I.Load_Last_Touch |         890      6.42%      6.42% |         916      6.61%     13.03% |         847      6.11%     19.14% |         895      6.46%     25.60% |         854      6.16%     31.76% |         834      6.02%     37.78% |         859      6.20%     43.97% |         890      6.42%     50.39% |         849      6.13%     56.52% |         836      6.03%     62.55% |         849      6.13%     68.67% |         900      6.49%     75.17% |         879      6.34%     81.51% |         856      6.18%     87.68% |         823      5.94%     93.62% |         884      6.38%    100.00%
system.ruby.L1Cache_Controller.M_I.Load_Last_Touch::total        13861                      
system.ruby.L1Cache_Controller.M_I.Store |           7     12.73%     12.73% |           0      0.00%     12.73% |           5      9.09%     21.82% |           2      3.64%     25.45% |           3      5.45%     30.91% |           0      0.00%     30.91% |           4      7.27%     38.18% |           2      3.64%     41.82% |           5      9.09%     50.91% |           8     14.55%     65.45% |           0      0.00%     65.45% |           1      1.82%     67.27% |           8     14.55%     81.82% |           2      3.64%     85.45% |           5      9.09%     94.55% |           3      5.45%    100.00%
system.ruby.L1Cache_Controller.M_I.Store::total           55                      
system.ruby.L1Cache_Controller.M_I.Store_Last_Touch |        5917      6.38%      6.38% |        5763      6.22%     12.60% |        5832      6.29%     18.89% |        5729      6.18%     25.07% |        5735      6.19%     31.26% |        5879      6.34%     37.60% |        5844      6.30%     43.90% |        5839      6.30%     50.20% |        5806      6.26%     56.46% |        5836      6.30%     62.76% |        5809      6.27%     69.03% |        5681      6.13%     75.15% |        5822      6.28%     81.43% |        5780      6.23%     87.67% |        5612      6.05%     93.72% |        5819      6.28%    100.00%
system.ruby.L1Cache_Controller.M_I.Store_Last_Touch::total        92703                      
system.ruby.L1Cache_Controller.M_I.WB_Ack |       43534      6.24%      6.24% |       43574      6.25%     12.49% |       43630      6.26%     18.75% |       43647      6.26%     25.01% |       42955      6.16%     31.17% |       43881      6.29%     37.46% |       43789      6.28%     43.74% |       43324      6.21%     49.96% |       43888      6.29%     56.25% |       43105      6.18%     62.43% |       43927      6.30%     68.73% |       43647      6.26%     74.99% |       43710      6.27%     81.26% |       43865      6.29%     87.55% |       43323      6.21%     93.76% |       43484      6.24%    100.00%
system.ruby.L1Cache_Controller.M_I.WB_Ack::total       697283                      
system.ruby.L1Cache_Controller.NP.Ifetch |       14083      6.18%      6.18% |       14187      6.23%     12.41% |       14318      6.29%     18.70% |       14264      6.26%     24.96% |       14277      6.27%     31.23% |       14113      6.20%     37.43% |       14191      6.23%     43.66% |       14258      6.26%     49.92% |       14185      6.23%     56.15% |       14278      6.27%     62.42% |       14293      6.28%     68.70% |       14372      6.31%     75.01% |       14345      6.30%     81.30% |       14217      6.24%     87.55% |       14161      6.22%     93.77% |       14199      6.23%    100.00%
system.ruby.L1Cache_Controller.NP.Ifetch::total       227741                      
system.ruby.L1Cache_Controller.NP.Load   |        1346      6.18%      6.18% |        1377      6.32%     12.49% |        1363      6.25%     18.75% |        1351      6.20%     24.95% |        1409      6.47%     31.41% |        1372      6.30%     37.71% |        1344      6.17%     43.88% |        1386      6.36%     50.24% |        1310      6.01%     56.25% |        1352      6.20%     62.45% |        1324      6.08%     68.53% |        1416      6.50%     75.02% |        1333      6.12%     81.14% |        1358      6.23%     87.37% |        1421      6.52%     93.89% |        1331      6.11%    100.00%
system.ruby.L1Cache_Controller.NP.Load::total        21793                      
system.ruby.L1Cache_Controller.NP.Store  |       12827      6.19%      6.19% |       12896      6.22%     12.41% |       13041      6.29%     18.70% |       12994      6.27%     24.97% |       12949      6.25%     31.21% |       12831      6.19%     37.40% |       12935      6.24%     43.64% |       12954      6.25%     49.89% |       12967      6.25%     56.14% |       13011      6.28%     62.42% |       13057      6.30%     68.72% |       13029      6.28%     75.00% |       13101      6.32%     81.32% |       12942      6.24%     87.56% |       12831      6.19%     93.75% |       12950      6.25%    100.00%
system.ruby.L1Cache_Controller.NP.Store::total       207315                      
system.ruby.L1Cache_Controller.S.Ifetch  |          40      6.00%      6.00% |          46      6.90%     12.89% |          42      6.30%     19.19% |          45      6.75%     25.94% |          42      6.30%     32.23% |          43      6.45%     38.68% |          41      6.15%     44.83% |          43      6.45%     51.27% |          33      4.95%     56.22% |          49      7.35%     63.57% |          44      6.60%     70.16% |          39      5.85%     76.01% |          34      5.10%     81.11% |          40      6.00%     87.11% |          37      5.55%     92.65% |          49      7.35%    100.00%
system.ruby.L1Cache_Controller.S.Ifetch::total          667                      
system.ruby.L1Cache_Controller.S.Inv     |       13694      6.16%      6.16% |       13819      6.22%     12.38% |       13866      6.24%     18.61% |       13907      6.26%     24.87% |       13939      6.27%     31.14% |       13841      6.23%     37.36% |       13840      6.23%     43.59% |       13921      6.26%     49.85% |       13833      6.22%     56.07% |       14006      6.30%     62.37% |       13981      6.29%     68.66% |       14043      6.32%     74.98% |       14032      6.31%     81.29% |       13831      6.22%     87.51% |       13861      6.23%     93.75% |       13899      6.25%    100.00%
system.ruby.L1Cache_Controller.S.Inv::total       222313                      
system.ruby.L1Cache_Controller.S.L1_Replacement |        1080      6.10%      6.10% |        1066      6.02%     12.11% |        1124      6.34%     18.46% |        1112      6.28%     24.73% |        1111      6.27%     31.00% |        1034      5.84%     36.84% |        1112      6.28%     43.11% |        1104      6.23%     49.35% |        1135      6.41%     55.75% |        1092      6.16%     61.91% |        1146      6.47%     68.38% |        1168      6.59%     74.97% |        1071      6.04%     81.02% |        1146      6.47%     87.49% |        1122      6.33%     93.82% |        1095      6.18%    100.00%
system.ruby.L1Cache_Controller.S.L1_Replacement::total        17718                      
system.ruby.L1Cache_Controller.S.Load    |           0      0.00%      0.00% |           1     25.00%     25.00% |           0      0.00%     25.00% |           0      0.00%     25.00% |           1     25.00%     50.00% |           0      0.00%     50.00% |           1     25.00%     75.00% |           0      0.00%     75.00% |           0      0.00%     75.00% |           0      0.00%     75.00% |           0      0.00%     75.00% |           1     25.00%    100.00% |           0      0.00%    100.00% |           0      0.00%    100.00% |           0      0.00%    100.00% |           0      0.00%    100.00%
system.ruby.L1Cache_Controller.S.Load::total            4                      
system.ruby.L1Cache_Controller.S.Load_Last_Touch |           0      0.00%      0.00% |           0      0.00%      0.00% |           0      0.00%      0.00% |           0      0.00%      0.00% |           0      0.00%      0.00% |           0      0.00%      0.00% |           0      0.00%      0.00% |           0      0.00%      0.00% |           0      0.00%      0.00% |           0      0.00%      0.00% |           0      0.00%      0.00% |           0      0.00%      0.00% |           0      0.00%      0.00% |           0      0.00%      0.00% |           1    100.00%    100.00% |           0      0.00%    100.00%
system.ruby.L1Cache_Controller.S.Load_Last_Touch::total            1                      
system.ruby.L1Cache_Controller.S.Store   |           0      0.00%      0.00% |           1      2.33%      2.33% |           3      6.98%      9.30% |           3      6.98%     16.28% |           2      4.65%     20.93% |           6     13.95%     34.88% |           4      9.30%     44.19% |           4      9.30%     53.49% |           3      6.98%     60.47% |           2      4.65%     65.12% |           3      6.98%     72.09% |           2      4.65%     76.74% |           3      6.98%     83.72% |           2      4.65%     88.37% |           3      6.98%     95.35% |           2      4.65%    100.00%
system.ruby.L1Cache_Controller.S.Store::total           43                      
[...]
system.ruby.network.routers18.port_buffers025.avg_buf_msgs     0.093285                       # Average number of messages in buffer
system.ruby.network.routers18.port_buffers025.avg_stall_time   240.348058                       # Average number of cycles messages are stalled in this MB
system.ruby.network.routers18.port_buffers026.avg_buf_msgs     0.030586                       # Average number of messages in buffer
system.ruby.network.routers18.port_buffers026.avg_stall_time   125.409053                       # Average number of cycles messages are stalled in this MB
system.ruby.network.routers18.port_buffers028.avg_buf_msgs     0.093859                       # Average number of messages in buffer
system.ruby.network.routers18.port_buffers028.avg_stall_time   240.943524                       # Average number of cycles messages are stalled in this MB
system.ruby.network.routers18.port_buffers029.avg_buf_msgs     0.030437                       # Average number of messages in buffer
system.ruby.network.routers18.port_buffers029.avg_stall_time   126.394425                       # Average number of cycles messages are stalled in this MB
system.ruby.network.routers18.port_buffers031.avg_buf_msgs     0.093019                       # Average number of messages in buffer
system.ruby.network.routers18.port_buffers031.avg_stall_time   240.085385                       # Average number of cycles messages are stalled in this MB
system.ruby.network.routers18.port_buffers032.avg_buf_msgs     0.030466                       # Average number of messages in buffer
system.ruby.network.routers18.port_buffers032.avg_stall_time   126.561902                       # Average number of cycles messages are stalled in this MB
system.ruby.network.routers18.port_buffers034.avg_buf_msgs     0.093984                       # Average number of messages in buffer
system.ruby.network.routers18.port_buffers034.avg_stall_time   240.722837                       # Average number of cycles messages are stalled in this MB
system.ruby.network.routers18.port_buffers035.avg_buf_msgs     0.030392                       # Average number of messages in buffer
system.ruby.network.routers18.port_buffers035.avg_stall_time   126.850660                       # Average number of cycles messages are stalled in this MB
system.ruby.network.routers18.port_buffers037.avg_buf_msgs     0.092937                       # Average number of messages in buffer
system.ruby.network.routers18.port_buffers037.avg_stall_time   240.634561                       # Average number of cycles messages are stalled in this MB
system.ruby.network.routers18.port_buffers038.avg_buf_msgs     0.030505                       # Average number of messages in buffer
system.ruby.network.routers18.port_buffers038.avg_stall_time   126.036673                       # Average number of cycles messages are stalled in this MB
system.ruby.network.routers18.port_buffers040.avg_buf_msgs     0.093698                       # Average number of messages in buffer
system.ruby.network.routers18.port_buffers040.avg_stall_time   240.376177                       # Average number of cycles messages are stalled in this MB
system.ruby.network.routers18.port_buffers041.avg_buf_msgs     0.030706                       # Average number of messages in buffer
system.ruby.network.routers18.port_buffers041.avg_stall_time   126.182667                       # Average number of cycles messages are stalled in this MB
system.ruby.network.routers18.port_buffers043.avg_buf_msgs     0.092834                       # Average number of messages in buffer
system.ruby.network.routers18.port_buffers043.avg_stall_time   240.782667                       # Average number of cycles messages are stalled in this MB
system.ruby.network.routers18.port_buffers044.avg_buf_msgs     0.030687                       # Average number of messages in buffer
system.ruby.network.routers18.port_buffers044.avg_stall_time   126.934579                       # Average number of cycles messages are stalled in this MB
system.ruby.network.routers18.port_buffers046.avg_buf_msgs     0.092737                       # Average number of messages in buffer
system.ruby.network.routers18.port_buffers046.avg_stall_time   240.212079                       # Average number of cycles messages are stalled in this MB
system.ruby.network.routers18.port_buffers047.avg_buf_msgs     0.030525                       # Average number of messages in buffer
system.ruby.network.routers18.port_buffers047.avg_stall_time   126.131332                       # Average number of cycles messages are stalled in this MB
system.ruby.network.routers18.port_buffers048.avg_buf_msgs    63.536743                       # Average number of messages in buffer
system.ruby.network.routers18.port_buffers048.avg_stall_time  1072.399879                       # Average number of cycles messages are stalled in this MB
system.ruby.network.routers18.port_buffers049.avg_buf_msgs     0.066498                       # Average number of messages in buffer
system.ruby.network.routers18.port_buffers049.avg_stall_time    80.778752                       # Average number of cycles messages are stalled in this MB
system.ruby.network.routers18.port_buffers050.avg_buf_msgs     2.021298                       # Average number of messages in buffer
system.ruby.network.routers18.port_buffers050.avg_stall_time    85.636429                       # Average number of cycles messages are stalled in this MB
system.ruby.network.routers18.port_buffers051.avg_buf_msgs     0.000061                       # Average number of messages in buffer
system.ruby.network.routers18.port_buffers051.avg_stall_time    13.009846                       # Average number of cycles messages are stalled in this MB
system.ruby.network.routers18.pwrStateResidencyTicks::UNDEFINED     75063941                       # Cumulative time (in ticks) in various power states
system.ruby.network.routers18.throttle0.link_utilization     1.133341                      
system.ruby.network.routers18.throttle0.msg_bytes.Request_Control::2      1017360                      
system.ruby.network.routers18.throttle0.msg_bytes.Response_Control::1      1362832                      
system.ruby.network.routers18.throttle0.msg_bytes.Response_Data::1     11231496                      
system.ruby.network.routers18.throttle0.msg_count.Request_Control::2       127170                      
system.ruby.network.routers18.throttle0.msg_count.Response_Control::1       170354                      
system.ruby.network.routers18.throttle0.msg_count.Response_Data::1       155993                      
system.ruby.network.routers18.throttle1.link_utilization     1.137911                      
system.ruby.network.routers18.throttle1.msg_bytes.Request_Control::2      1022408                      
system.ruby.network.routers18.throttle1.msg_bytes.Response_Control::1      1368816                      
system.ruby.network.routers18.throttle1.msg_bytes.Response_Data::1     11275344                      
system.ruby.network.routers18.throttle1.msg_count.Request_Control::2       127801                      
system.ruby.network.routers18.throttle1.msg_count.Response_Control::1       171102                      
system.ruby.network.routers18.throttle1.msg_count.Response_Data::1       156602                      
system.ruby.network.routers18.throttle10.link_utilization     1.135603                      
system.ruby.network.routers18.throttle10.msg_bytes.Request_Control::2      1015464                      
system.ruby.network.routers18.throttle10.msg_bytes.Response_Control::1      1364600                      
system.ruby.network.routers18.throttle10.msg_bytes.Response_Data::1     11258784                      
system.ruby.network.routers18.throttle10.msg_count.Request_Control::2       126933                      
system.ruby.network.routers18.throttle10.msg_count.Response_Control::1       170575                      
system.ruby.network.routers18.throttle10.msg_count.Response_Data::1       156372                      
system.ruby.network.routers18.throttle11.link_utilization     1.138419                      
system.ruby.network.routers18.throttle11.msg_bytes.Request_Control::2      1021832                      
system.ruby.network.routers18.throttle11.msg_bytes.Response_Control::1      1366000                      
system.ruby.network.routers18.throttle11.msg_bytes.Response_Data::1     11284848                      
system.ruby.network.routers18.throttle11.msg_count.Request_Control::2       127729                      
system.ruby.network.routers18.throttle11.msg_count.Response_Control::1       170750                      
system.ruby.network.routers18.throttle11.msg_count.Response_Data::1       156734                      
system.ruby.network.routers18.throttle12.link_utilization     1.134967                      
system.ruby.network.routers18.throttle12.msg_bytes.Request_Control::2      1015944                      
system.ruby.network.routers18.throttle12.msg_bytes.Response_Control::1      1364768                      
system.ruby.network.routers18.throttle12.msg_bytes.Response_Data::1     11250504                      
system.ruby.network.routers18.throttle12.msg_count.Request_Control::2       126993                      
system.ruby.network.routers18.throttle12.msg_count.Response_Control::1       170596                      
system.ruby.network.routers18.throttle12.msg_count.Response_Data::1       156257                      
system.ruby.network.routers18.throttle13.link_utilization     1.138449                      
system.ruby.network.routers18.throttle13.msg_bytes.Request_Control::2      1018040                      
system.ruby.network.routers18.throttle13.msg_bytes.Response_Control::1      1370152                      
system.ruby.network.routers18.throttle13.msg_bytes.Response_Data::1     11284848                      
system.ruby.network.routers18.throttle13.msg_count.Request_Control::2       127255                      
system.ruby.network.routers18.throttle13.msg_count.Response_Control::1       171269                      
system.ruby.network.routers18.throttle13.msg_count.Response_Data::1       156734                      
system.ruby.network.routers18.throttle14.link_utilization     1.133548                      
system.ruby.network.routers18.throttle14.msg_bytes.Request_Control::2      1019736                      
system.ruby.network.routers18.throttle14.msg_bytes.Response_Control::1      1361208                      
system.ruby.network.routers18.throttle14.msg_bytes.Response_Data::1     11233224                      
system.ruby.network.routers18.throttle14.msg_count.Request_Control::2       127467                      
system.ruby.network.routers18.throttle14.msg_count.Response_Control::1       170151                      
system.ruby.network.routers18.throttle14.msg_count.Response_Data::1       156017                      
system.ruby.network.routers18.throttle15.link_utilization     1.134742                      
system.ruby.network.routers18.throttle15.msg_bytes.Request_Control::2      1016856                      
system.ruby.network.routers18.throttle15.msg_bytes.Response_Control::1      1364824                      
system.ruby.network.routers18.throttle15.msg_bytes.Response_Data::1     11246832                      
system.ruby.network.routers18.throttle15.msg_count.Request_Control::2       127107                      
system.ruby.network.routers18.throttle15.msg_count.Response_Control::1       170603                      
system.ruby.network.routers18.throttle15.msg_count.Response_Data::1       156206                      
system.ruby.network.routers18.throttle16.link_utilization    16.696712                      
system.ruby.network.routers18.throttle16.msg_bytes.Control::0     19997240                      
system.ruby.network.routers18.throttle16.msg_bytes.Response_Control::2     18078864                      
system.ruby.network.routers18.throttle16.msg_bytes.Response_Data::1     18698616                      
system.ruby.network.routers18.throttle16.msg_bytes.Writeback_Data::0    143756640                      
system.ruby.network.routers18.throttle16.msg_count.Control::0      2499655                      
system.ruby.network.routers18.throttle16.msg_count.Response_Control::2      2259858                      
system.ruby.network.routers18.throttle16.msg_count.Response_Data::1       259703                      
system.ruby.network.routers18.throttle16.msg_count.Writeback_Data::0      1996620                      
system.ruby.network.routers18.throttle17.link_utilization     0.000068                      
system.ruby.network.routers18.throttle17.msg_bytes.Control::0          816                      
system.ruby.network.routers18.throttle17.msg_count.Control::0          102                      
system.ruby.network.routers18.throttle2.link_utilization     1.131701                      
system.ruby.network.routers18.throttle2.msg_bytes.Request_Control::2      1012832                      
system.ruby.network.routers18.throttle2.msg_bytes.Response_Control::1      1362496                      
system.ruby.network.routers18.throttle2.msg_bytes.Response_Data::1     11216664                      
system.ruby.network.routers18.throttle2.msg_count.Request_Control::2       126604                      
system.ruby.network.routers18.throttle2.msg_count.Response_Control::1       170312                      
system.ruby.network.routers18.throttle2.msg_count.Response_Data::1       155787                      
system.ruby.network.routers18.throttle3.link_utilization     1.138860                      
system.ruby.network.routers18.throttle3.msg_bytes.Request_Control::2      1021384                      
system.ruby.network.routers18.throttle3.msg_bytes.Response_Control::1      1368576                      
system.ruby.network.routers18.throttle3.msg_bytes.Response_Data::1     11288016                      
system.ruby.network.routers18.throttle3.msg_count.Request_Control::2       127673                      
system.ruby.network.routers18.throttle3.msg_count.Response_Control::1       171072                      
system.ruby.network.routers18.throttle3.msg_count.Response_Data::1       156778                      
system.ruby.network.routers18.throttle4.link_utilization     1.131117                      
system.ruby.network.routers18.throttle4.msg_bytes.Request_Control::2      1017064                      
system.ruby.network.routers18.throttle4.msg_bytes.Response_Control::1      1358160                      
system.ruby.network.routers18.throttle4.msg_bytes.Response_Data::1     11209752                      
system.ruby.network.routers18.throttle4.msg_count.Request_Control::2       127133                      
system.ruby.network.routers18.throttle4.msg_count.Response_Control::1       169770                      
system.ruby.network.routers18.throttle4.msg_count.Response_Data::1       155691                      
system.ruby.network.routers18.throttle5.link_utilization     1.133507                      
system.ruby.network.routers18.throttle5.msg_bytes.Request_Control::2      1014808                      
system.ruby.network.routers18.throttle5.msg_bytes.Response_Control::1      1361688                      
system.ruby.network.routers18.throttle5.msg_bytes.Response_Data::1     11237184                      
system.ruby.network.routers18.throttle5.msg_count.Request_Control::2       126851                      
system.ruby.network.routers18.throttle5.msg_count.Response_Control::1       170211                      
system.ruby.network.routers18.throttle5.msg_count.Response_Data::1       156072                      
system.ruby.network.routers18.throttle6.link_utilization     1.131952                      
system.ruby.network.routers18.throttle6.msg_bytes.Request_Control::2      1012016                      
system.ruby.network.routers18.throttle6.msg_bytes.Response_Control::1      1362512                      
system.ruby.network.routers18.throttle6.msg_bytes.Response_Data::1     11220480                      
system.ruby.network.routers18.throttle6.msg_count.Request_Control::2       126502                      
system.ruby.network.routers18.throttle6.msg_count.Response_Control::1       170314                      
system.ruby.network.routers18.throttle6.msg_count.Response_Data::1       155840                      
system.ruby.network.routers18.throttle7.link_utilization     1.134629                      
system.ruby.network.routers18.throttle7.msg_bytes.Request_Control::2      1019464                      
system.ruby.network.routers18.throttle7.msg_bytes.Response_Control::1      1362656                      
system.ruby.network.routers18.throttle7.msg_bytes.Response_Data::1     11245032                      
system.ruby.network.routers18.throttle7.msg_count.Request_Control::2       127433                      
system.ruby.network.routers18.throttle7.msg_count.Response_Control::1       170332                      
system.ruby.network.routers18.throttle7.msg_count.Response_Data::1       156181                      
system.ruby.network.routers18.throttle8.link_utilization     1.137393                      
system.ruby.network.routers18.throttle8.msg_bytes.Request_Control::2      1017640                      
system.ruby.network.routers18.throttle8.msg_bytes.Response_Control::1      1369528                      
system.ruby.network.routers18.throttle8.msg_bytes.Response_Data::1     11273184                      
system.ruby.network.routers18.throttle8.msg_count.Request_Control::2       127205                      
system.ruby.network.routers18.throttle8.msg_count.Response_Control::1       171191                      
system.ruby.network.routers18.throttle8.msg_count.Response_Data::1       156572                      
system.ruby.network.routers18.throttle9.link_utilization     1.131375                      
system.ruby.network.routers18.throttle9.msg_bytes.Request_Control::2      1017152                      
system.ruby.network.routers18.throttle9.msg_bytes.Response_Control::1      1360520                      
system.ruby.network.routers18.throttle9.msg_bytes.Response_Data::1     11210400                      
system.ruby.network.routers18.throttle9.msg_count.Request_Control::2       127144                      
system.ruby.network.routers18.throttle9.msg_count.Response_Control::1       170065                      
system.ruby.network.routers18.throttle9.msg_count.Response_Data::1       155700                      
system.ruby.outstanding_req_hist_seqr::bucket_size            2                      
system.ruby.outstanding_req_hist_seqr::max_bucket           19                      
system.ruby.outstanding_req_hist_seqr::samples      2500616                      
system.ruby.outstanding_req_hist_seqr::mean     9.795013                      
system.ruby.outstanding_req_hist_seqr::gmean     9.396910                      
system.ruby.outstanding_req_hist_seqr::stdev     2.679690                      
system.ruby.outstanding_req_hist_seqr    |         232      0.01%      0.01% |       12135      0.49%      0.49% |      112195      4.49%      4.98% |      385159     15.40%     20.38% |      660046     26.40%     46.78% |      666416     26.65%     73.43% |      431287     17.25%     90.68% |      192376      7.69%     98.37% |       40770      1.63%    100.00% |           0      0.00%    100.00%
system.ruby.outstanding_req_hist_seqr::total      2500616                      
system.ruby.pwrStateResidencyTicks::UNDEFINED     75063941                       # Cumulative time (in ticks) in various power states
system.sys_port_proxy.pwrStateResidencyTicks::UNDEFINED     75063941                       # Cumulative time (in ticks) in various power states
system.voltage_domain.voltage                       1                       # Voltage in Volts

---------- End Simulation Statistics   ----------
